<?xml version="1.0" encoding="UTF-8"?>

<configuration xmlns:xsi="http://www.w3.org/2001/XMLSchema-instance" xsi:noNamespaceSchemaLocation="http://sumo.dlr.de/xsd/sumoConfiguration.xsd">

    <input>
        <net-file value="test.net.xml"/>
        <route-files value="vehicle.route.xml"/>
        <additional-files value="map.poly.xml"/>
    </input>

    <time>
        <begin value="0"/>
        <end value="60"/>
    </time>
    <output>
	<fcd-output value="fcd.xml"/>
	<fcd-output.geo value="true"/>
    </output>

</configuration>