<?xml version="1.0" encoding="UTF-8"?>

<!-- generated on 11/10/20 12:52:20 by Eclipse SUMO polyconvert Version 1.7.0
<configuration xmlns:xsi="http://www.w3.org/2001/XMLSchema-instance" xsi:noNamespaceSchemaLocation="http://sumo.dlr.de/xsd/polyconvertConfiguration.xsd">

    <input>
        <net-file value="test.net.xml"/>
        <osm-files value="map.osm"/>
        <type-file value="typemap.xml"/>
    </input>

    <output>
        <output-file value="map.poly.xml"/>
    </output>

    <processing>
        <poi-layer-offset value="5"/>
    </processing>

    <report>
        <xml-validation value="never"/>
    </report>

</configuration>
-->

<additional> <!--xmlns:xsi="http://www.w3.org/2001/XMLSchema-instance" xsi:noNamespaceSchemaLocation="http://sumo.dlr.de/xsd/additional_file.xsd">-->
    <location netOffset="-776967.05,-1440110.12" convBoundary="-0.00,-958.47,2867.07,2660.40" origBoundary="77.553593,13.005508,77.579996,13.038244" projParameter="+proj=utm +zone=43 +ellps=WGS84 +datum=WGS84 +units=m +no_defs"/>

    <poly id="102654155" type="building" color="255,230,230" fill="1" layer="-1.00" shape="1585.414098,641.703291 1623.572464,640.063126 1621.692077,595.211316 1583.530741,597.139282 1585.414098,641.703291"/>
    <poly id="102765292" type="building" color="255,230,230" fill="1" layer="-1.00" shape="1581.550713,399.921425 1581.277067,366.842028 1622.570275,366.517556 1622.843871,399.596963 1581.550713,399.921425"/>
    <poly id="116902545" type="building" color="255,230,230" fill="1" layer="-1.00" shape="2012.807635,465.077456 2013.637857,443.101118 2033.428564,443.854879 2032.598325,465.831220 2012.807635,465.077456"/>
    <poly id="116902547" type="forest" color="140,196,107" fill="1" layer="-3.00" shape="1799.016106,447.284290 1911.420515,444.369501 1910.978513,344.271448 1831.469933,347.518932 1802.139229,369.207069 1786.959220,430.956137 1799.016106,447.284290"/>
    <poly id="116902547#1" type="forest" color="140,196,107" fill="1" layer="-4.00" shape="1799.016106,447.284290 1911.420515,444.369501 1910.978513,344.271448 1831.469933,347.518932 1802.139229,369.207069 1786.959220,430.956137 1799.016106,447.284290"/>
    <poly id="116902548" type="building" color="255,230,230" fill="1" layer="-1.00" shape="2005.550201,441.070985 2005.631957,422.264124 2032.994783,422.363891 2032.913009,441.170756 2005.550201,441.070985"/>
    <poly id="116902549" type="building" color="255,230,230" fill="1" layer="-1.00" shape="1944.351716,454.112004 1944.785422,436.991329 1962.549481,437.436721 1962.115764,454.557397 1944.351716,454.112004"/>
    <poly id="133297105" type="amenity" color="237,199,199" fill="1" layer="-1.00" shape="2019.146703,1505.111007 2015.835158,1485.926600 2035.721411,1482.530281 2039.032944,1501.714692 2019.146703,1505.111007"/>
    <poly id="133298024" type="tourism" color="207,245,201" fill="1" layer="-2.00" shape="2162.730323,1572.907227 2158.566963,1541.393374 2199.377001,1533.969423 2200.238978,1542.092383 2214.980977,1539.717844 2218.052657,1565.420036 2162.730323,1572.907227"/>
    <poly id="133340691" type="building" color="255,230,230" fill="1" layer="-1.00" shape="2318.838747,1331.283933 2314.913526,1316.975057 2329.214876,1313.112722 2333.140090,1327.421602 2318.838747,1331.283933"/>
    <poly id="148029459" type="parking" color="184,184,179" fill="1" layer="-1.00" shape="1468.937345,1620.305306 1465.742490,1599.207138 1510.549893,1592.497887 1513.744716,1613.596067 1468.937345,1620.305306"/>
    <poly id="148029465" type="parking" color="184,184,179" fill="1" layer="-1.00" shape="1581.333404,1600.541765 1576.953252,1567.863606 1648.902329,1558.329460 1653.293366,1590.996686 1599.516358,1598.124220 1581.333404,1600.541765"/>
    <poly id="148032600" type="amenity" color="237,199,199" fill="1" layer="-1.00" shape="1699.251601,1586.413710 1696.311639,1569.103945 1676.295751,1572.454898 1672.874689,1552.273184 1691.792556,1549.099307 1711.840351,1545.815103 1711.093447,1541.324261 1716.975104,1540.365335 1717.558217,1543.880374 1722.428885,1543.077270 1721.508122,1537.533033 1746.633032,1533.425697 1781.228544,1527.654102 1780.521812,1523.484688 1822.901957,1516.408179 1823.854253,1522.052371 1849.741034,1517.742506 1853.048538,1537.336414 1847.112270,1538.327970 1851.311196,1563.144802 1830.773545,1566.567855 1826.533543,1541.518147 1789.796109,1547.655454 1790.533828,1551.980160 1773.714444,1554.787760 1775.783620,1566.974461 1762.182381,1569.250067 1759.939006,1556.043180 1750.893255,1557.556785 1749.920587,1551.779554 1710.345366,1558.408532 1714.668479,1583.835418 1699.251601,1586.413710"/>
    <poly id="148032600#1" type="building" color="255,230,230" fill="1" layer="-1.00" shape="1699.251601,1586.413710 1696.311639,1569.103945 1676.295751,1572.454898 1672.874689,1552.273184 1691.792556,1549.099307 1711.840351,1545.815103 1711.093447,1541.324261 1716.975104,1540.365335 1717.558217,1543.880374 1722.428885,1543.077270 1721.508122,1537.533033 1746.633032,1533.425697 1781.228544,1527.654102 1780.521812,1523.484688 1822.901957,1516.408179 1823.854253,1522.052371 1849.741034,1517.742506 1853.048538,1537.336414 1847.112270,1538.327970 1851.311196,1563.144802 1830.773545,1566.567855 1826.533543,1541.518147 1789.796109,1547.655454 1790.533828,1551.980160 1773.714444,1554.787760 1775.783620,1566.974461 1762.182381,1569.250067 1759.939006,1556.043180 1750.893255,1557.556785 1749.920587,1551.779554 1710.345366,1558.408532 1714.668479,1583.835418 1699.251601,1586.413710"/>
    <poly id="163955725" type="amenity" color="237,199,199" fill="1" layer="-1.00" shape="1653.441656,1637.502582 1582.321724,1646.635477 1603.551705,1809.776019 1678.322896,1800.170986 1675.210840,1776.272921 1658.735101,1778.386638 1653.759708,1740.189637 1629.491597,1743.309398 1628.776024,1737.866870 1665.889949,1733.105875 1661.398078,1698.611091 1653.441656,1637.502582"/>
    <poly id="163955725#1" type="building" color="255,230,230" fill="1" layer="-1.00" shape="1653.441656,1637.502582 1582.321724,1646.635477 1603.551705,1809.776019 1678.322896,1800.170986 1675.210840,1776.272921 1658.735101,1778.386638 1653.759708,1740.189637 1629.491597,1743.309398 1628.776024,1737.866870 1665.889949,1733.105875 1661.398078,1698.611091 1653.441656,1637.502582"/>
    <poly id="163955727" type="amenity" color="237,199,199" fill="1" layer="-1.00" shape="1626.196676,1698.852811 1621.773217,1664.026643 1626.011602,1663.493877 1624.875696,1654.537960 1644.654762,1652.059105 1645.468900,1658.487846 1628.548025,1660.608162 1632.459187,1691.355451 1651.597022,1688.958680 1652.431070,1695.564741 1626.196676,1698.852811"/>
    <poly id="163955727#1" type="building" color="255,230,230" fill="1" layer="-1.00" shape="1626.196676,1698.852811 1621.773217,1664.026643 1626.011602,1663.493877 1624.875696,1654.537960 1644.654762,1652.059105 1645.468900,1658.487846 1628.548025,1660.608162 1632.459187,1691.355451 1651.597022,1688.958680 1652.431070,1695.564741 1626.196676,1698.852811"/>
    <poly id="165740586" type="tourism" color="207,245,201" fill="1" layer="-2.00" shape="1517.453554,1614.984080 1514.042356,1588.448426 1571.859015,1581.118036 1575.270161,1607.653708 1517.453554,1614.984080"/>
    <poly id="166254793" type="leisure" color="207,245,201" fill="1" layer="-2.00" shape="1789.960553,1679.421549 1786.729423,1653.352561 1821.154426,1646.184518 1789.960553,1679.421549"/>
    <poly id="166254794" type="amenity" color="237,199,199" fill="1" layer="-1.00" shape="1687.342069,1690.770410 1681.918688,1652.867756 1739.385029,1644.759301 1744.808338,1682.661981 1687.342069,1690.770410"/>
    <poly id="166254794#1" type="building" color="255,230,230" fill="1" layer="-1.00" shape="1687.342069,1690.770410 1681.918688,1652.867756 1739.385029,1644.759301 1744.808338,1682.661981 1687.342069,1690.770410"/>
    <poly id="167606945" type="parking" color="184,184,179" fill="1" layer="-1.00" shape="1272.670475,1646.871221 1281.833925,1690.645252 1334.623169,1681.337489 1319.965723,1633.467439 1272.670475,1646.871221"/>
    <poly id="169454717" type="amenity" color="237,199,199" fill="1" layer="-1.00" shape="1756.351756,1679.944901 1755.198667,1670.546002 1748.667550,1671.332296 1745.990387,1649.508678 1745.178735,1642.836418 1753.709452,1641.804678 1769.901437,1639.854177 1770.623473,1645.728503 1779.588861,1644.645820 1781.643870,1661.448508 1773.819480,1662.398827 1775.684416,1677.605533 1756.351756,1679.944901"/>
    <poly id="169454717#1" type="building" color="255,230,230" fill="1" layer="-1.00" shape="1756.351756,1679.944901 1755.198667,1670.546002 1748.667550,1671.332296 1745.990387,1649.508678 1745.178735,1642.836418 1753.709452,1641.804678 1769.901437,1639.854177 1770.623473,1645.728503 1779.588861,1644.645820 1781.643870,1661.448508 1773.819480,1662.398827 1775.684416,1677.605533 1756.351756,1679.944901"/>
    <poly id="169454720" type="parking" color="184,184,179" fill="1" layer="-1.00" shape="1791.968853,1690.113209 1832.453231,1648.335726 1836.237213,1651.949587 1795.752721,1693.738134 1791.968853,1690.113209"/>
    <poly id="169454722" type="building" color="255,230,230" fill="1" layer="-1.00" shape="1555.127041,1552.742930 1554.604802,1535.690110 1629.747870,1533.383585 1630.280915,1550.436525 1555.127041,1552.742930"/>
    <poly id="184299457" type="building" color="255,230,230" fill="1" layer="-1.00" shape="2007.889378,1555.663790 2003.993653,1538.432835 2034.823373,1531.549637 2038.729934,1548.780710 2007.889378,1555.663790"/>
    <poly id="184299457#1" type="shop" color="237,199,255" fill="1" layer="-1.00" shape="2007.889378,1555.663790 2003.993653,1538.432835 2034.823373,1531.549637 2038.729934,1548.780710 2007.889378,1555.663790"/>
    <poly id="261253027" type="building" color="255,230,230" fill="1" layer="-1.00" shape="2226.557483,1551.956690 2224.311235,1536.912091 2275.607730,1529.339918 2277.853840,1544.395595 2226.557483,1551.956690"/>
    <poly id="261253027#1" type="shop" color="237,199,255" fill="1" layer="-1.00" shape="2226.557483,1551.956690 2224.311235,1536.912091 2275.607730,1529.339918 2277.853840,1544.395595 2226.557483,1551.956690"/>
    <poly id="264548633" type="amenity" color="237,199,199" fill="1" layer="-1.00" shape="1502.126416,1665.595364 1504.747822,1686.510631 1518.436188,1795.841819 1594.638102,1786.428141 1578.328666,1656.181575 1502.126416,1665.595364"/>
    <poly id="264548633#1" type="building" color="255,230,230" fill="1" layer="-1.00" shape="1502.126416,1665.595364 1504.747822,1686.510631 1518.436188,1795.841819 1594.638102,1786.428141 1578.328666,1656.181575 1502.126416,1665.595364"/>
    <poly id="286098651" type="building" color="255,230,230" fill="1" layer="-1.00" shape="1344.473289,1658.212537 1336.114568,1612.144077 1345.596263,1610.446562 1353.954969,1656.515027 1344.473289,1658.212537"/>
    <poly id="286098653" type="parking" color="184,184,179" fill="1" layer="-1.00" shape="1466.106247,1650.198427 1464.373835,1639.044672 1591.321326,1619.627528 1593.073605,1630.958618 1538.361583,1639.327688 1537.516090,1633.850644 1508.415434,1638.294327 1509.230053,1643.605010 1466.106247,1650.198427"/>
    <poly id="286098656" type="building" color="255,230,230" fill="1" layer="-1.00" shape="1515.116895,1584.153126 1508.770524,1543.042049 1547.546022,1537.135312 1553.892340,1578.246408 1515.116895,1584.153126"/>
    <poly id="302576805" type="building" color="255,230,230" fill="1" layer="-1.00" shape="1750.054685,1638.291766 1745.935829,1610.918639 1843.920132,1596.345979 1848.049751,1623.719249 1750.054685,1638.291766"/>
    <poly id="33133158" type="amenity" color="237,199,199" fill="1" layer="-1.00" shape="781.651909,320.407426 856.311983,480.486746 861.144506,486.712375 905.145662,539.670823 920.437472,559.230271 983.016316,665.378268 1092.376495,624.061770 1159.512607,599.034992 1100.629309,703.327204 1062.258067,792.815733 1044.432252,787.765224 1055.450699,831.734849 1040.867270,941.045776 1012.245149,1073.395209 997.834848,1110.676787 949.901305,1234.661923 900.341031,1342.402368 896.291962,1407.031169 895.371705,1441.238569 905.168772,1494.361619 916.972213,1527.191875 972.915091,1695.861988 1023.129199,1741.655222 1054.822587,1738.388493 1084.570681,1735.367836 1116.818135,1722.376417 1210.053723,1682.448139 1265.435640,1647.484472 1444.676888,1538.896159 1670.060394,1527.902140 1834.898887,1507.496589 1890.376369,1503.973312 1933.976345,1498.636208 1937.720461,1491.179816 1947.193047,1443.221446 1927.674996,1401.666859 1893.132889,1328.145464 1934.289242,1329.414419 1939.778037,1207.502267 1911.957868,1025.298674 1915.930506,812.908364 1917.744104,752.739919 2035.110237,761.377668 2071.414151,320.976388 2084.330607,119.358867 2044.648132,117.064395 2046.818108,69.950894 2028.096059,64.392600 1553.100176,25.009169 1382.828373,8.655794 1352.568291,7.365184 1002.475477,199.459372 781.651909,320.407426"/>
    <poly id="345861069" type="building" color="255,230,230" fill="1" layer="-1.00" shape="2103.880779,569.646344 2107.502161,570.037240 2107.120683,573.409688 2110.515379,573.676521 2110.445906,580.539135 2114.611626,580.769495 2114.995347,577.175673 2116.069252,577.241894 2118.849853,551.322273 2105.475249,550.456266 2103.880779,569.646344"/>
    <poly id="345861083" type="building" color="255,230,230" fill="1" layer="-1.00" shape="2284.158448,605.168634 2276.166993,622.578095 2290.418321,629.043364 2294.913434,619.258846 2298.500546,620.889248 2302.007751,613.264419 2295.179257,610.162095 2293.725307,613.324422 2290.483926,611.852502 2291.927023,608.690064 2284.158448,605.168634"/>
    <poly id="345861115" type="building" color="255,230,230" fill="1" layer="-1.00" shape="2351.825347,782.872757 2341.079664,767.874867 2344.725922,765.808537 2340.743422,754.997180 2311.141469,753.092103 2311.041851,773.636801 2322.622253,773.743068 2326.565166,774.535772 2326.205925,777.853098 2331.250275,778.136679 2331.200575,774.472043 2335.942107,776.789416 2345.797939,787.483171 2351.825347,782.872757"/>
    <poly id="345861120" type="building" color="255,230,230" fill="1" layer="-1.00" shape="2309.476106,819.970547 2317.428072,820.383217 2317.659300,822.201021 2319.308973,822.217737 2319.372469,824.520917 2325.344148,824.337890 2325.630558,820.709869 2328.605993,820.573971 2328.522382,812.757784 2325.880951,812.066825 2325.496797,809.273321 2321.263296,809.307913 2321.117211,807.657019 2319.544294,807.563592 2319.450593,805.027639 2309.668570,805.260619 2309.476106,819.970547"/>
    <poly id="345861151" type="building" color="255,230,230" fill="1" layer="-1.00" shape="2067.115880,752.070867 2083.518420,751.893752 2083.321324,733.836804 2066.907809,734.024880 2067.115880,752.070867"/>
    <poly id="345861168" type="building" color="255,230,230" fill="1" layer="-1.00" shape="2394.884076,833.212209 2395.807059,840.671602 2409.772155,838.953410 2408.838322,831.493906 2394.884076,833.212209"/>
    <poly id="345861171" type="building" color="255,230,230" fill="1" layer="-1.00" shape="2129.916875,393.068780 2135.800130,393.050847 2135.791885,390.648602 2129.908629,390.666535 2129.916875,393.068780"/>
    <poly id="345861177" type="building" color="255,230,230" fill="1" layer="-1.00" shape="2177.028450,796.832264 2173.801031,803.629691 2187.801751,810.180944 2191.018433,803.372339 2177.028450,796.832264"/>
    <poly id="345861231" type="building" color="255,230,230" fill="1" layer="-1.00" shape="2409.266800,718.541059 2417.003868,718.741247 2417.196400,711.525628 2409.459329,711.325440 2409.266800,718.541059"/>
    <poly id="345861287" type="building" color="255,230,230" fill="1" layer="-1.00" shape="2176.599533,622.676664 2200.026842,623.378838 2200.208887,617.192622 2176.781573,616.490448 2176.599533,622.676664"/>
    <poly id="345861295" type="building" color="255,230,230" fill="1" layer="-1.00" shape="2182.043397,582.437451 2180.055279,599.763811 2202.519436,602.327039 2204.518421,585.000788 2182.043397,582.437451"/>
    <poly id="345861313" type="building" color="255,230,230" fill="1" layer="-1.00" shape="2217.886604,753.686115 2226.210620,753.803637 2226.620042,725.170009 2218.296018,725.052489 2217.886604,753.686115"/>
    <poly id="345861326" type="building" color="255,230,230" fill="1" layer="-1.00" shape="2188.818221,577.978476 2211.990209,580.316409 2213.809963,562.468058 2190.627106,560.130017 2188.818221,577.978476"/>
    <poly id="345861387" type="building" color="255,230,230" fill="1" layer="-1.00" shape="2249.542931,739.228479 2249.162935,745.667300 2276.662294,747.263190 2277.031444,740.824258 2249.542931,739.228479"/>
    <poly id="345861420" type="building" color="255,230,230" fill="1" layer="-1.00" shape="2373.754384,637.935524 2377.466613,629.360767 2359.818161,621.798317 2356.095084,630.372965 2373.754384,637.935524"/>
    <poly id="345861453" type="building" color="255,230,230" fill="1" layer="-1.00" shape="2126.890705,596.568741 2127.347990,603.934834 2134.309811,603.518244 2133.852528,596.152151 2126.890705,596.568741"/>
    <poly id="345861457" type="building" color="255,230,230" fill="1" layer="-1.00" shape="2411.288086,692.602647 2419.034107,692.991113 2420.059538,673.208537 2412.302657,672.819962 2411.288086,692.602647"/>
    <poly id="345861461" type="building" color="255,230,230" fill="1" layer="-1.00" shape="2108.484471,597.378687 2108.108290,605.588720 2125.239189,606.382064 2125.615487,598.160962 2108.484471,597.378687"/>
    <poly id="345861465" type="building" color="255,230,230" fill="1" layer="-1.00" shape="2152.812254,414.167259 2162.643178,414.477115 2162.992779,403.532552 2153.150885,403.233656 2152.812254,414.167259"/>
    <poly id="345861473" type="building" color="255,230,230" fill="1" layer="-1.00" shape="2118.587224,414.285727 2126.559998,414.798158 2127.113861,406.191408 2119.151937,405.679087 2118.587224,414.285727"/>
    <poly id="345861476" type="building" color="255,230,230" fill="1" layer="-1.00" shape="2271.524076,821.600745 2282.387040,816.452606 2273.893480,798.787582 2263.041365,803.935835 2271.524076,821.600745"/>
    <poly id="345861543" type="building" color="255,230,230" fill="1" layer="-1.00" shape="2221.655506,654.848144 2224.529354,655.098648 2225.057363,649.048773 2222.183514,648.798269 2221.655506,654.848144"/>
    <poly id="345861565" type="building" color="255,230,230" fill="1" layer="-1.00" shape="2055.224617,824.491317 2067.876969,824.851870 2068.231395,812.357579 2055.579038,811.997027 2055.224617,824.491317"/>
    <poly id="345861575" type="building" color="255,230,230" fill="1" layer="-1.00" shape="2332.340055,846.260739 2352.885878,846.380387 2352.948581,835.908908 2332.402750,835.789260 2332.340055,846.260739"/>
    <poly id="345861586" type="building" color="255,230,230" fill="1" layer="-1.00" shape="2173.188416,805.173270 2170.225957,811.530585 2184.681383,818.197141 2187.654698,811.839936 2173.188416,805.173270"/>
    <poly id="345861599" type="building" color="255,230,230" fill="1" layer="-1.00" shape="2410.420206,867.110719 2420.735365,866.750344 2420.236630,852.775081 2409.921466,853.135457 2410.420206,867.110719"/>
    <poly id="345861641" type="building" color="255,230,230" fill="1" layer="-1.00" shape="2115.720618,591.308167 2128.021297,592.107960 2129.125565,575.237590 2116.835732,574.437907 2115.720618,591.308167"/>
    <poly id="345861645" type="building" color="255,230,230" fill="1" layer="-1.00" shape="2416.724287,839.488815 2434.324058,837.918176 2433.610997,830.095601 2416.022075,831.666351 2416.724287,839.488815"/>
    <poly id="345861759" type="building" color="255,230,230" fill="1" layer="-1.00" shape="2407.857255,730.172300 2422.169201,730.649457 2422.508269,720.756409 2408.196318,720.279252 2407.857255,730.172300"/>
    <poly id="345861814" type="building" color="255,230,230" fill="1" layer="-1.00" shape="2306.613003,641.893514 2325.721943,648.861883 2338.076340,615.434233 2318.967376,608.465859 2306.613003,641.893514"/>
    <poly id="345861831" type="building" color="255,230,230" fill="1" layer="-1.00" shape="2205.752678,656.048678 2205.481247,649.625401 2203.461548,649.704576 2203.732980,656.127853 2205.752678,656.048678"/>
    <poly id="345861838" type="building" color="255,230,230" fill="1" layer="-1.00" shape="2192.164748,624.804723 2192.222727,629.797823 2197.270575,629.738243 2197.201744,624.745033 2192.164748,624.804723"/>
    <poly id="345861874" type="building" color="255,230,230" fill="1" layer="-1.00" shape="2350.319462,830.790115 2355.786064,831.177611 2356.141102,826.133339 2350.674386,825.756912 2350.319462,830.790115"/>
    <poly id="345861918" type="building" color="255,230,230" fill="1" layer="-1.00" shape="2349.430086,621.848037 2357.242736,625.303515 2360.174489,618.768778 2352.350983,615.313190 2349.430086,621.848037"/>
    <poly id="345861984" type="building" color="255,230,230" fill="1" layer="-1.00" shape="2090.754615,409.122193 2107.373836,411.150148 2109.348451,395.152039 2092.729220,393.124086 2090.754615,409.122193"/>
    <poly id="345861989" type="building" color="255,230,230" fill="1" layer="-1.00" shape="2251.229950,719.485832 2250.639011,732.819051 2303.974785,735.163768 2304.565750,721.830545 2251.229950,719.485832"/>
    <poly id="345862009" type="building" color="255,230,230" fill="1" layer="-1.00" shape="2247.130325,748.093154 2247.123011,760.602044 2265.509897,760.622256 2265.528073,748.113474 2247.130325,748.093154"/>
    <poly id="345862048" type="building" color="255,230,230" fill="1" layer="-1.00" shape="2096.110711,574.848014 2102.881647,575.060465 2103.058850,569.350207 2096.287801,569.148826 2096.110711,574.848014"/>
    <poly id="345862195" type="building" color="255,230,230" fill="1" layer="-1.00" shape="2190.387312,548.437802 2201.894161,549.384565 2203.020680,535.680398 2175.690417,533.444284 2172.149332,568.001780 2188.218869,569.636792 2190.387312,548.437802"/>
    <poly id="345862340" type="building" color="255,230,230" fill="1" layer="-1.00" shape="2279.184603,741.499194 2278.652271,750.117240 2299.642214,751.403672 2299.512151,753.527772 2308.136022,754.046872 2308.265973,751.933841 2339.919059,753.870768 2340.462264,745.252830 2279.184603,741.499194"/>
    <poly id="345862366" type="building" color="255,230,230" fill="1" layer="-1.00" shape="2378.831133,763.552732 2401.056344,763.977242 2407.493583,651.461680 2385.014870,650.337211 2382.138976,703.842056 2377.678887,703.741508 2376.854587,717.603726 2382.375591,717.980704 2378.831133,763.552732"/>
    <poly id="345894105" type="building" color="255,230,230" fill="1" layer="-1.00" shape="2437.604289,1186.708548 2452.647931,1184.580692 2449.981148,1166.055847 2434.937384,1168.194776 2437.604289,1186.708548"/>
    <poly id="345894107" type="building" color="255,230,230" fill="1" layer="-1.00" shape="2455.227814,1191.337352 2454.548255,1186.636823 2439.026298,1188.837318 2439.705859,1193.537846 2455.227814,1191.337352"/>
    <poly id="345894108" type="building" color="255,230,230" fill="1" layer="-1.00" shape="2427.520613,1133.205117 2428.239887,1120.072441 2415.373950,1119.377432 2414.654682,1132.510107 2427.520613,1133.205117"/>
    <poly id="345894119" type="building" color="255,230,230" fill="1" layer="-1.00" shape="2361.168266,1231.829389 2392.856169,1225.995775 2391.219201,1217.233961 2359.531289,1223.067579 2361.168266,1231.829389"/>
    <poly id="345894121" type="building" color="255,230,230" fill="1" layer="-1.00" shape="2222.551201,1177.178403 2223.081093,1167.730093 2188.519463,1165.808019 2187.989695,1175.245259 2222.551201,1177.178403"/>
    <poly id="345894123" type="building" color="255,230,230" fill="1" layer="-1.00" shape="2222.920780,1162.127108 2223.160655,1157.734796 2207.821618,1156.881986 2207.571004,1161.263120 2222.920780,1162.127108"/>
    <poly id="345894137" type="building" color="255,230,230" fill="1" layer="-1.00" shape="2324.882353,1268.313236 2353.409800,1264.805440 2352.597026,1258.254894 2324.058720,1261.762583 2324.882353,1268.313236"/>
    <poly id="345894163" type="building" color="255,230,230" fill="1" layer="-1.00" shape="2442.072360,1214.915678 2465.018331,1211.661343 2462.554255,1194.555498 2439.608159,1197.820906 2442.072360,1214.915678"/>
    <poly id="345894180" type="building" color="255,230,230" fill="1" layer="-1.00" shape="2322.449291,1259.919737 2352.824326,1256.176058 2352.242431,1251.476525 2321.867503,1255.209137 2322.449291,1259.919737"/>
    <poly id="345894237" type="building" color="255,230,230" fill="1" layer="-1.00" shape="2176.350849,1220.569202 2178.774138,1177.432296 2120.911248,1174.200488 2119.879405,1192.488538 2105.636096,1191.691159 2104.420707,1213.099053 2111.504315,1213.502892 2111.317621,1216.932662 2176.350849,1220.569202"/>
    <poly id="346504420" type="building" color="255,230,230" fill="1" layer="-1.00" shape="852.418054,1652.669804 868.819230,1667.624448 881.943606,1653.421466 865.542426,1638.466815 852.418054,1652.669804"/>
    <poly id="346504734" type="building" color="255,230,230" fill="1" layer="-1.00" shape="895.031778,1651.417019 912.052689,1645.821362 908.829244,1636.124927 891.808217,1641.731655 895.031778,1651.417019"/>
    <poly id="346504746" type="building" color="255,230,230" fill="1" layer="-1.00" shape="845.315552,1660.612689 853.557027,1667.802606 858.739325,1661.921474 850.497848,1654.731556 845.315552,1660.612689"/>
    <poly id="346504788" type="building" color="255,230,230" fill="1" layer="-1.00" shape="911.777245,1635.468339 940.406891,1626.048961 933.264502,1604.590086 904.623986,1614.009365 911.777245,1635.468339"/>
    <poly id="346504970" type="building" color="255,230,230" fill="1" layer="-1.00" shape="919.406509,1660.308401 946.544181,1651.383194 939.696525,1630.835010 912.558838,1639.760228 919.406509,1660.308401"/>
    <poly id="346505139" type="building" color="255,230,230" fill="1" layer="-1.00" shape="928.089133,1685.092678 935.254644,1682.740687 936.276420,1685.817325 944.324125,1683.164283 943.302350,1680.087644 952.983431,1676.908663 945.682972,1654.983254 920.777807,1663.167169 928.089133,1685.092678"/>
    <poly id="346548303" type="building" color="255,230,230" fill="1" layer="-1.00" shape="939.619605,1159.626889 963.000815,1163.759267 965.818968,1148.002184 942.448598,1143.869916 939.619605,1159.626889"/>
    <poly id="346548354" type="building" color="255,230,230" fill="1" layer="-1.00" shape="682.648221,1304.330672 692.001450,1301.380742 688.771254,1291.263640 679.418022,1294.213571 682.648221,1304.330672"/>
    <poly id="346548402" type="building" color="255,230,230" fill="1" layer="-1.00" shape="726.733688,1616.909092 737.881283,1612.527146 724.500572,1578.950496 713.352968,1583.332449 726.733688,1616.909092"/>
    <poly id="346548403" type="building" color="255,230,230" fill="1" layer="-1.00" shape="766.045779,1290.714081 771.279563,1288.342559 767.700488,1280.535506 762.466703,1282.907029 766.045779,1290.714081"/>
    <poly id="346548426" type="building" color="255,230,230" fill="1" layer="-1.00" shape="775.720986,1065.220856 788.346577,1060.676667 782.917339,1045.821670 770.302485,1050.377041 775.720986,1065.220856"/>
    <poly id="346548466" type="building" color="255,230,230" fill="1" layer="-1.00" shape="968.201464,1088.271540 986.604468,1090.958925 988.480176,1078.247596 970.066311,1075.560101 968.201464,1088.271540"/>
    <poly id="346548469" type="building" color="255,230,230" fill="1" layer="-1.00" shape="783.218565,1084.856698 791.251956,1081.483901 785.685605,1068.387613 777.652101,1071.771481 783.218565,1084.856698"/>
    <poly id="346548477" type="building" color="255,230,230" fill="1" layer="-1.00" shape="934.254696,1566.686074 945.617558,1564.642097 939.147286,1529.275289 927.795153,1531.330449 934.254696,1566.686074"/>
    <poly id="346548501" type="building" color="255,230,230" fill="1" layer="-1.00" shape="809.100595,1359.880302 820.161371,1359.814702 820.065092,1344.603867 809.004310,1344.669468 809.100595,1359.880302"/>
    <poly id="346548567" type="building" color="255,230,230" fill="1" layer="-1.00" shape="925.924531,1529.551484 938.636718,1527.166880 937.410117,1520.722963 924.697815,1523.118637 925.924531,1529.551484"/>
    <poly id="346548573" type="building" color="255,230,230" fill="1" layer="-1.00" shape="798.202603,1393.322900 806.254830,1390.227059 802.774211,1381.269733 794.711129,1384.365467 798.202603,1393.322900"/>
    <poly id="346548575" type="building" color="255,230,230" fill="1" layer="-1.00" shape="943.604566,1176.692398 962.839024,1178.723978 964.301397,1165.023270 945.077782,1162.991800 943.604566,1176.692398"/>
    <poly id="346548603" type="building" color="255,230,230" fill="1" layer="-1.00" shape="714.098422,1357.538936 725.010807,1352.811432 722.018707,1345.995511 711.106209,1350.734085 714.098422,1357.538936"/>
    <poly id="346548639" type="building" color="255,230,230" fill="1" layer="-1.00" shape="895.278452,1607.594252 923.972395,1573.512030 915.565988,1566.530757 886.882904,1600.613097 895.278452,1607.594252"/>
    <poly id="346548654" type="building" color="255,230,230" fill="1" layer="-1.00" shape="785.750329,1093.195610 794.445744,1089.829487 791.747204,1082.961172 783.051675,1086.338364 785.750329,1093.195610"/>
    <poly id="346548695" type="building" color="255,230,230" fill="1" layer="-1.00" shape="753.683806,1054.803509 766.473751,1050.105989 763.240218,1041.394707 750.439417,1046.092119 753.683806,1054.803509"/>
    <poly id="346548728" type="building" color="255,230,230" fill="1" layer="-1.00" shape="927.895446,1153.353854 937.563376,1154.724379 939.723197,1139.669123 930.055262,1138.298598 927.895446,1153.353854"/>
    <poly id="346548734" type="building" color="255,230,230" fill="1" layer="-1.00" shape="690.931932,1290.112019 703.454935,1286.042779 701.685762,1280.656116 689.162758,1284.725357 690.931932,1290.112019"/>