<?xml version="1.0" encoding="UTF-8"?>

<!-- generated on 11/10/20 18:01:59 by Eclipse SUMO netconvert Version 1.7.0
<configuration xmlns:xsi="http://www.w3.org/2001/XMLSchema-instance" xsi:noNamespaceSchemaLocation="http://sumo.dlr.de/xsd/netconvertConfiguration.xsd">

    <input>
        <osm-files value="map.osm"/>
    </input>

    <projection>
        <proj.utm value="true"/>
    </projection>

    <processing>
        <lefthand value="true"/>
    </processing>

    <report>
        <aggregate-warnings value="5"/>
    </report>

</configuration>
-->

<net version="1.6" junctionCornerDetail="5" lefthand="true" limitTurnSpeed="5.50" xmlns:xsi="http://www.w3.org/2001/XMLSchema-instance" xsi:noNamespaceSchemaLocation="http://sumo.dlr.de/xsd/net_file.xsd">

    <location netOffset="-776967.05,-1440110.12" convBoundary="0.00,-0.00,2851.20,2267.13" origBoundary="77.553593,13.007893,77.579855,13.034767" projParameter="+proj=utm +zone=43 +ellps=WGS84 +datum=WGS84 +units=m +no_defs"/>

    <type id="highway.bridleway" priority="1" numLanes="1" speed="2.78" allow="pedestrian" oneway="1" width="2.00"/>
    <type id="highway.bus_guideway" priority="1" numLanes="1" speed="27.78" allow="bus" oneway="1"/>
    <type id="highway.cycleway" priority="1" numLanes="1" speed="8.33" allow="bicycle" oneway="0" width="1.00"/>
    <type id="highway.footway" priority="1" numLanes="1" speed="2.78" allow="pedestrian" oneway="1" width="2.00"/>
    <type id="highway.ford" priority="1" numLanes="1" speed="2.78" allow="army" oneway="0"/>
    <type id="highway.living_street" priority="2" numLanes="1" speed="2.78" disallow="tram rail_urban rail rail_electric rail_fast ship" oneway="0"/>
    <type id="highway.motorway" priority="14" numLanes="2" speed="39.44" allow="private emergency authority army vip passenger hov taxi bus coach delivery truck trailer motorcycle evehicle custom1 custom2" oneway="1"/>
    <type id="highway.motorway_link" priority="9" numLanes="1" speed="22.22" allow="private emergency authority army vip passenger hov taxi bus coach delivery truck trailer motorcycle evehicle custom1 custom2" oneway="1"/>
    <type id="highway.path" priority="1" numLanes="1" speed="2.78" allow="pedestrian bicycle" oneway="1" width="2.00"/>
    <type id="highway.pedestrian" priority="1" numLanes="1" speed="2.78" allow="pedestrian" oneway="1" width="2.00"/>
    <type id="highway.primary" priority="12" numLanes="2" speed="27.78" disallow="tram rail_urban rail rail_electric rail_fast ship" oneway="0"/>
    <type id="highway.primary_link" priority="7" numLanes="1" speed="22.22" disallow="tram rail_urban rail rail_electric rail_fast ship" oneway="0"/>
    <type id="highway.raceway" priority="15" numLanes="2" speed="83.33" allow="vip" oneway="0"/>
    <type id="highway.residential" priority="3" numLanes="1" speed="13.89" disallow="tram rail_urban rail rail_electric rail_fast ship" oneway="0"/>
    <type id="highway.secondary" priority="11" numLanes="1" speed="27.78" disallow="tram rail_urban rail rail_electric rail_fast ship" oneway="0"/>
    <type id="highway.secondary_link" priority="6" numLanes="1" speed="22.22" disallow="tram rail_urban rail rail_electric rail_fast ship" oneway="0"/>
    <type id="highway.service" priority="1" numLanes="1" speed="5.56" allow="pedestrian delivery bicycle" oneway="0"/>
    <type id="highway.stairs" priority="1" numLanes="1" speed="1.39" allow="pedestrian" oneway="1" width="2.00"/>
    <type id="highway.step" priority="1" numLanes="1" speed="1.39" allow="pedestrian" oneway="1" width="2.00"/>
    <type id="highway.steps" priority="1" numLanes="1" speed="1.39" allow="pedestrian" oneway="1" width="2.00"/>
    <type id="highway.tertiary" priority="10" numLanes="1" speed="22.22" disallow="tram rail_urban rail rail_electric rail_fast ship" oneway="0"/>
    <type id="highway.tertiary_link" priority="5" numLanes="1" speed="22.22" disallow="tram rail_urban rail rail_electric rail_fast ship" oneway="0"/>
    <type id="highway.track" priority="1" numLanes="1" speed="5.56" allow="pedestrian motorcycle moped bicycle" oneway="0"/>
    <type id="highway.trunk" priority="13" numLanes="2" speed="27.78" disallow="pedestrian bicycle tram rail_urban rail rail_electric rail_fast ship" oneway="0"/>
    <type id="highway.trunk_link" priority="8" numLanes="1" speed="22.22" disallow="pedestrian bicycle tram rail_urban rail rail_electric rail_fast ship" oneway="0"/>
    <type id="highway.unclassified" priority="4" numLanes="1" speed="13.89" disallow="tram rail_urban rail rail_electric rail_fast ship" oneway="0"/>
    <type id="highway.unsurfaced" priority="1" numLanes="1" speed="8.33" disallow="tram rail_urban rail rail_electric rail_fast ship" oneway="0"/>
    <type id="railway.highspeed" priority="21" numLanes="1" speed="69.44" allow="rail_fast" oneway="1"/>
    <type id="railway.light_rail" priority="19" numLanes="1" speed="27.78" allow="rail_urban" oneway="1"/>
    <type id="railway.preserved" priority="16" numLanes="1" speed="27.78" allow="rail" oneway="1"/>
    <type id="railway.rail" priority="20" numLanes="1" speed="44.44" allow="rail" oneway="1"/>
    <type id="railway.subway" priority="18" numLanes="1" speed="27.78" allow="rail_urban" oneway="1"/>
    <type id="railway.tram" priority="17" numLanes="1" speed="13.89" allow="tram" oneway="1"/>

    <edge id=":1085546652_0" function="internal">
        <lane id=":1085546652_0_0" index="0" allow="pedestrian delivery bicycle" speed="3.65" length="4.67" shape="1788.74,346.77 1787.92,345.58 1787.11,345.19 1786.32,345.60 1785.54,346.81"/>
    </edge>
    <edge id=":1085546691_0" function="internal">
        <lane id=":1085546691_0_0" index="0" allow="pedestrian bicycle" speed="2.78" length="1.72" width="2.00" shape="1908.95,1073.86 1908.90,1074.34 1908.71,1074.67 1908.38,1074.87 1907.91,1074.92"/>
    </edge>
    <edge id=":1085546698_0" function="internal">
        <lane id=":1085546698_0_0" index="0" allow="pedestrian delivery bicycle" speed="5.56" length="5.48" shape="1582.36,601.77 1582.10,596.29"/>
    </edge>
    <edge id=":1085546698_1" function="internal">
        <lane id=":1085546698_1_0" index="0" allow="pedestrian delivery bicycle" speed="3.65" length="4.67" shape="1582.36,601.77 1581.50,600.61 1580.68,600.24 1579.90,600.68 1579.16,601.92"/>
    </edge>
    <edge id=":1085546698_2" function="internal">
        <lane id=":1085546698_2_0" index="0" allow="pedestrian delivery bicycle" speed="5.56" length="5.48" shape="1578.90,596.45 1579.16,601.92"/>
    </edge>
    <edge id=":1085546698_3" function="internal">
        <lane id=":1085546698_3_0" index="0" allow="pedestrian delivery bicycle" speed="3.65" length="4.67" shape="1578.90,596.45 1579.76,597.61 1580.58,597.97 1581.36,597.53 1582.10,596.29"/>
    </edge>
    <edge id=":1085546741_0" function="internal">
        <lane id=":1085546741_0_0" index="0" disallow="tram rail_urban rail rail_electric rail_fast ship" speed="13.89" length="10.79" shape="1414.36,625.47 1413.78,614.70"/>
    </edge>
    <edge id=":1085546741_1" function="internal">
        <lane id=":1085546741_1_0" index="0" allow="pedestrian delivery bicycle" speed="6.89" length="5.05" shape="1414.36,625.47 1413.80,622.77 1412.50,620.88"/>
    </edge>
    <edge id=":1085546741_2" function="internal">
        <lane id=":1085546741_2_0" index="0" disallow="tram rail_urban rail rail_electric rail_fast ship" speed="3.65" length="2.34" shape="1414.36,625.47 1413.49,624.33 1412.66,623.98"/>
    </edge>
    <edge id=":1085546741_9" function="internal">
        <lane id=":1085546741_9_0" index="0" allow="pedestrian delivery bicycle" speed="6.89" length="5.08" shape="1412.50,620.88 1410.47,619.81 1407.70,619.55"/>
    </edge>
    <edge id=":1085546741_10" function="internal">
        <lane id=":1085546741_10_0" index="0" disallow="tram rail_urban rail rail_electric rail_fast ship" speed="3.65" length="2.34" shape="1412.66,623.98 1411.89,624.42 1411.16,625.67"/>
    </edge>
    <edge id=":1085546741_3" function="internal">
        <lane id=":1085546741_3_0" index="0" allow="pedestrian delivery bicycle" speed="5.07" length="5.02" shape="1407.85,622.74 1409.23,622.87 1410.24,623.40 1410.89,624.33 1411.16,625.67"/>
    </edge>
    <edge id=":1085546741_4" function="internal">
        <lane id=":1085546741_4_0" index="0" allow="pedestrian delivery bicycle" speed="7.22" length="11.36" shape="1407.85,622.74 1410.59,622.13 1412.48,620.58 1413.55,618.11 1413.78,614.70"/>
    </edge>
    <edge id=":1085546741_5" function="internal">
        <lane id=":1085546741_5_0" index="0" allow="pedestrian delivery bicycle" speed="3.65" length="4.67" shape="1407.85,622.74 1409.01,621.89 1409.38,621.07 1408.94,620.29 1407.70,619.55"/>
    </edge>
    <edge id=":1085546741_6" function="internal">
        <lane id=":1085546741_6_0" index="0" allow="pedestrian delivery bicycle" speed="5.52" length="6.22" shape="1410.58,614.85 1410.48,616.85 1409.97,618.30 1409.04,619.20 1407.70,619.55"/>
    </edge>
    <edge id=":1085546741_7" function="internal">
        <lane id=":1085546741_7_0" index="0" disallow="tram rail_urban rail rail_electric rail_fast ship" speed="13.89" length="10.83" shape="1410.58,614.85 1411.16,625.67"/>
    </edge>
    <edge id=":1085546741_8" function="internal">
        <lane id=":1085546741_8_0" index="0" disallow="tram rail_urban rail rail_electric rail_fast ship" speed="3.65" length="2.34" shape="1410.58,614.85 1411.44,616.01 1412.26,616.37"/>
    </edge>
    <edge id=":1085546741_11" function="internal">
        <lane id=":1085546741_11_0" index="0" disallow="tram rail_urban rail rail_electric rail_fast ship" speed="3.65" length="2.34" shape="1412.26,616.37 1413.04,615.94 1413.78,614.70"/>
    </edge>
    <edge id=":1085546763_0" function="internal">
        <lane id=":1085546763_0_0" index="0" allow="pedestrian delivery bicycle" speed="5.56" length="5.03" shape="1498.61,675.49 1493.59,675.73"/>
    </edge>
    <edge id=":1085546763_1" function="internal">
        <lane id=":1085546763_1_0" index="0" allow="pedestrian delivery bicycle" speed="3.65" length="2.34" shape="1498.61,675.49 1497.45,676.35 1497.09,677.16"/>
    </edge>
    <edge id=":1085546763_4" function="internal">
        <lane id=":1085546763_4_0" index="0" allow="pedestrian delivery bicycle" speed="3.65" length="2.34" shape="1497.09,677.16 1497.53,677.94 1498.77,678.69"/>
    </edge>
    <edge id=":1085546763_2" function="internal">
        <lane id=":1085546763_2_0" index="0" allow="pedestrian delivery bicycle" speed="5.56" length="5.03" shape="1493.75,678.92 1498.77,678.69"/>
    </edge>
    <edge id=":1085546763_3" function="internal">
        <lane id=":1085546763_3_0" index="0" allow="pedestrian delivery bicycle" speed="3.65" length="2.34" shape="1493.75,678.92 1494.91,678.07 1495.27,677.25"/>
    </edge>
    <edge id=":1085546763_5" function="internal">
        <lane id=":1085546763_5_0" index="0" allow="pedestrian delivery bicycle" speed="3.65" length="2.34" shape="1495.27,677.25 1494.83,676.47 1493.59,675.73"/>
    </edge>
    <edge id=":1085546805_0" function="internal">
        <lane id=":1085546805_0_0" index="0" disallow="tram rail_urban rail rail_electric rail_fast ship" speed="6.21" length="8.27" shape="1523.08,1160.75 1521.91,1162.93 1520.46,1164.23 1518.73,1164.66 1516.72,1164.20"/>
    </edge>
    <edge id=":1085546805_1" function="internal">
        <lane id=":1085546805_1_0" index="0" disallow="tram rail_urban rail rail_electric rail_fast ship" speed="8.06" length="14.22" shape="1523.08,1160.75 1522.17,1164.55 1522.67,1167.75 1524.58,1170.33 1527.90,1172.31"/>
    </edge>
    <edge id=":1085546805_2" function="internal">
        <lane id=":1085546805_2_0" index="0" disallow="tram rail_urban rail rail_electric rail_fast ship" speed="3.65" length="4.67" shape="1523.08,1160.75 1523.39,1162.16 1523.99,1162.82 1524.88,1162.74 1526.06,1161.92"/>
    </edge>
    <edge id=":1085546805_3" function="internal">
        <lane id=":1085546805_3_0" index="0" disallow="tram rail_urban rail rail_electric rail_fast ship" speed="6.58" length="9.13" shape="1529.13,1169.35 1527.00,1168.08 1525.79,1166.42 1525.47,1164.37 1526.06,1161.92"/>
    </edge>
    <edge id=":1085546805_4" function="internal">
        <lane id=":1085546805_4_0" index="0" disallow="tram rail_urban rail rail_electric rail_fast ship" speed="13.89" length="13.43" shape="1529.13,1169.35 1516.72,1164.20"/>
    </edge>
    <edge id=":1085546805_5" function="internal">
        <lane id=":1085546805_5_0" index="0" disallow="tram rail_urban rail rail_electric rail_fast ship" speed="3.65" length="2.34" shape="1529.13,1169.35 1527.71,1169.63 1527.03,1170.21"/>
    </edge>
    <edge id=":1085546805_9" function="internal">
        <lane id=":1085546805_9_0" index="0" disallow="tram rail_urban rail rail_electric rail_fast ship" speed="3.65" length="2.34" shape="1527.03,1170.21 1527.10,1171.11 1527.90,1172.31"/>
    </edge>
    <edge id=":1085546805_6" function="internal">
        <lane id=":1085546805_6_0" index="0" disallow="tram rail_urban rail rail_electric rail_fast ship" speed="13.89" length="13.43" shape="1515.49,1167.16 1527.90,1172.31"/>
    </edge>
    <edge id=":1085546805_7" function="internal">
        <lane id=":1085546805_7_0" index="0" disallow="tram rail_urban rail rail_electric rail_fast ship" speed="7.76" length="5.35" shape="1515.49,1167.16 1518.90,1167.97 1520.71,1167.59"/>
    </edge>
    <edge id=":1085546805_8" function="internal">
        <lane id=":1085546805_8_0" index="0" disallow="tram rail_urban rail rail_electric rail_fast ship" speed="3.65" length="2.34" shape="1515.49,1167.16 1516.91,1166.88 1517.59,1166.29"/>
    </edge>
    <edge id=":1085546805_10" function="internal">
        <lane id=":1085546805_10_0" index="0" disallow="tram rail_urban rail rail_electric rail_fast ship" speed="7.76" length="8.14" shape="1520.71,1167.59 1521.79,1167.37 1524.18,1165.35 1526.06,1161.92"/>
    </edge>
    <edge id=":1085546805_11" function="internal">
        <lane id=":1085546805_11_0" index="0" disallow="tram rail_urban rail rail_electric rail_fast ship" speed="3.65" length="2.34" shape="1517.59,1166.29 1517.52,1165.40 1516.72,1164.20"/>
    </edge>
    <edge id=":1085546830_0" function="internal">
        <lane id=":1085546830_0_0" index="0" disallow="tram rail_urban rail rail_electric rail_fast ship" speed="13.89" length="5.60" shape="1407.20,471.45 1406.95,465.86"/>
    </edge>
    <edge id=":1085546830_1" function="internal">
        <lane id=":1085546830_1_0" index="0" disallow="tram rail_urban rail rail_electric rail_fast ship" speed="3.65" length="2.34" shape="1407.20,471.45 1406.35,470.29 1405.53,469.93"/>
    </edge>
    <edge id=":1085546830_4" function="internal">
        <lane id=":1085546830_4_0" index="0" disallow="tram rail_urban rail rail_electric rail_fast ship" speed="3.65" length="2.34" shape="1405.53,469.93 1404.75,470.37 1404.01,471.60"/>
    </edge>
    <edge id=":1085546830_2" function="internal">
        <lane id=":1085546830_2_0" index="0" disallow="tram rail_urban rail rail_electric rail_fast ship" speed="13.89" length="5.60" shape="1403.75,466.00 1404.01,471.60"/>
    </edge>
    <edge id=":1085546830_3" function="internal">
        <lane id=":1085546830_3_0" index="0" disallow="tram rail_urban rail rail_electric rail_fast ship" speed="3.65" length="2.34" shape="1403.75,466.00 1404.60,467.17 1405.42,467.53"/>
    </edge>
    <edge id=":1085546830_5" function="internal">
        <lane id=":1085546830_5_0" index="0" disallow="tram rail_urban rail rail_electric rail_fast ship" speed="3.65" length="2.34" shape="1405.42,467.53 1406.20,467.09 1406.95,465.86"/>
    </edge>
    <edge id=":1085546922_0" function="internal">
        <lane id=":1085546922_0_0" index="0" disallow="tram rail_urban rail rail_electric rail_fast ship" speed="13.89" length="13.72" shape="1516.54,1164.13 1503.86,1158.87"/>
    </edge>
    <edge id=":1085546922_1" function="internal">
        <lane id=":1085546922_1_0" index="0" disallow="tram rail_urban rail rail_electric rail_fast ship" speed="7.41" length="5.60" shape="1516.54,1164.13 1512.63,1163.18 1511.11,1163.61"/>
    </edge>
    <edge id=":1085546922_2" function="internal">
        <lane id=":1085546922_2_0" index="0" disallow="tram rail_urban rail rail_electric rail_fast ship" speed="3.65" length="2.34" shape="1516.54,1164.13 1515.12,1164.41 1514.45,1164.99"/>
    </edge>
    <edge id=":1085546922_9" function="internal">
        <lane id=":1085546922_9_0" index="0" disallow="tram rail_urban rail rail_electric rail_fast ship" speed="7.41" length="9.16" shape="1511.11,1163.61 1509.69,1164.00 1507.73,1166.58 1506.74,1170.92"/>
    </edge>
    <edge id=":1085546922_10" function="internal">
        <lane id=":1085546922_10_0" index="0" disallow="tram rail_urban rail rail_electric rail_fast ship" speed="3.65" length="2.34" shape="1514.45,1164.99 1514.51,1165.88 1515.31,1167.08"/>
    </edge>
    <edge id=":1085546922_3" function="internal">
        <lane id=":1085546922_3_0" index="0" disallow="tram rail_urban rail rail_electric rail_fast ship" speed="5.75" length="8.39" shape="1509.93,1171.23 1510.48,1168.67 1511.57,1167.12 1513.18,1166.59 1515.31,1167.08"/>
    </edge>
    <edge id=":1085546922_4" function="internal">
        <lane id=":1085546922_4_0" index="0" disallow="tram rail_urban rail rail_electric rail_fast ship" speed="9.22" length="14.84" shape="1509.93,1171.23 1509.89,1166.90 1508.86,1163.40 1506.86,1160.72 1503.86,1158.87"/>
    </edge>
    <edge id=":1085546922_5" function="internal">
        <lane id=":1085546922_5_0" index="0" disallow="tram rail_urban rail rail_electric rail_fast ship" speed="3.65" length="4.67" shape="1509.93,1171.23 1509.24,1169.96 1508.49,1169.48 1507.65,1169.80 1506.74,1170.92"/>
    </edge>
    <edge id=":1085546922_6" function="internal">
        <lane id=":1085546922_6_0" index="0" disallow="tram rail_urban rail rail_electric rail_fast ship" speed="7.92" length="10.74" shape="1502.64,1161.82 1504.69,1163.14 1506.06,1165.09 1506.74,1167.69 1506.74,1170.92"/>
    </edge>
    <edge id=":1085546922_7" function="internal">
        <lane id=":1085546922_7_0" index="0" disallow="tram rail_urban rail rail_electric rail_fast ship" speed="13.89" length="13.72" shape="1502.64,1161.82 1515.31,1167.08"/>
    </edge>
    <edge id=":1085546922_8" function="internal">
        <lane id=":1085546922_8_0" index="0" disallow="tram rail_urban rail rail_electric rail_fast ship" speed="3.65" length="2.34" shape="1502.64,1161.82 1504.05,1161.54 1504.73,1160.96"/>
    </edge>
    <edge id=":1085546922_11" function="internal">
        <lane id=":1085546922_11_0" index="0" disallow="tram rail_urban rail rail_electric rail_fast ship" speed="3.65" length="2.34" shape="1504.73,1160.96 1504.66,1160.07 1503.86,1158.87"/>
    </edge>
    <edge id=":1085546984_0" function="internal">
        <lane id=":1085546984_0_0" index="0" allow="pedestrian bicycle" speed="2.78" length="4.04" width="2.00" shape="1871.46,840.85 1872.43,840.30 1873.34,840.20 1874.18,840.55 1874.96,841.34"/>
    </edge>
    <edge id=":1085546984_1" function="internal">
        <lane id=":1085546984_1_0" index="0" allow="pedestrian bicycle" speed="2.78" length="5.01" width="2.00" shape="1871.98,837.32 1874.96,841.34"/>
    </edge>
    <edge id=":1085547009_0" function="internal">
        <lane id=":1085547009_0_0" index="0" allow="pedestrian delivery bicycle" speed="5.56" length="5.74" shape="1575.52,459.19 1575.24,453.46"/>
    </edge>
    <edge id=":1085547009_1" function="internal">
        <lane id=":1085547009_1_0" index="0" allow="pedestrian delivery bicycle" speed="3.65" length="4.67" shape="1575.52,459.19 1574.66,458.03 1573.84,457.67 1573.07,458.11 1572.32,459.34"/>
    </edge>
    <edge id=":1085547009_2" function="internal">
        <lane id=":1085547009_2_0" index="0" allow="pedestrian delivery bicycle" speed="5.56" length="5.74" shape="1572.05,453.61 1572.32,459.34"/>
    </edge>
    <edge id=":1085547009_3" function="internal">
        <lane id=":1085547009_3_0" index="0" allow="pedestrian delivery bicycle" speed="3.65" length="4.67" shape="1572.05,453.61 1572.91,454.77 1573.72,455.13 1574.50,454.69 1575.24,453.46"/>
    </edge>
    <edge id=":1085604304_0" function="internal">
        <lane id=":1085604304_0_0" index="0" allow="pedestrian delivery bicycle" speed="5.56" length="5.02" shape="1318.33,1605.04 1314.05,1607.67"/>
    </edge>
    <edge id=":1085604304_1" function="internal">
        <lane id=":1085604304_1_0" index="0" allow="pedestrian delivery bicycle" speed="3.65" length="2.34" shape="1318.33,1605.04 1317.73,1606.35 1317.81,1607.24"/>
    </edge>
    <edge id=":1085604304_6" function="internal">
        <lane id=":1085604304_6_0" index="0" allow="pedestrian delivery bicycle" speed="3.65" length="2.34" shape="1317.81,1607.24 1318.57,1607.71 1320.01,1607.77"/>
    </edge>
    <edge id=":1085604304_2" function="internal">
        <lane id=":1085604304_2_0" index="0" allow="pedestrian delivery bicycle" speed="5.56" length="5.02" shape="1315.73,1610.40 1320.01,1607.77"/>
    </edge>
    <edge id=":1085604304_3" function="internal">
        <lane id=":1085604304_3_0" index="0" allow="pedestrian delivery bicycle" speed="3.65" length="2.34" shape="1315.73,1610.40 1316.33,1609.09 1316.25,1608.20"/>
    </edge>
    <edge id=":1085604304_7" function="internal">
        <lane id=":1085604304_7_0" index="0" allow="pedestrian delivery bicycle" speed="3.65" length="2.34" shape="1316.25,1608.20 1315.50,1607.72 1314.05,1607.67"/>
    </edge>
    <edge id=":1085604304_4" function="internal">
        <lane id=":1085604304_4_0" index="0" allow="pedestrian bicycle" speed="4.17" length="4.67" shape="1314.71,1603.47 1315.15,1604.86 1315.18,1606.03 1314.82,1606.96 1314.05,1607.67"/>
    </edge>
    <edge id=":1085604304_5" function="internal">
        <lane id=":1085604304_5_0" index="0" allow="pedestrian bicycle" speed="4.17" length="7.73" shape="1314.71,1603.47 1315.99,1605.99 1317.31,1607.54 1318.64,1608.13 1320.01,1607.77"/>
    </edge>
    <edge id=":1146648142_0" function="internal">
        <lane id=":1146648142_0_0" index="0" allow="pedestrian delivery bicycle" speed="3.65" length="4.67" shape="967.40,623.53 966.63,624.74 966.59,625.64 967.28,626.21 968.71,626.45"/>
    </edge>
    <edge id=":1176488960_0" function="internal">
        <lane id=":1176488960_0_0" index="0" allow="pedestrian delivery bicycle" speed="4.13" length="1.38" shape="868.31,484.18 867.96,484.14 867.64,484.03 867.36,483.86 867.11,483.61"/>
    </edge>
    <edge id=":1176488960_1" function="internal">
        <lane id=":1176488960_1_0" index="0" allow="pedestrian delivery bicycle" speed="5.56" length="4.13" shape="864.65,485.66 865.41,486.40 866.26,486.93 867.21,487.26 868.26,487.38"/>
    </edge>
    <edge id=":1185581622_0" function="internal">
        <lane id=":1185581622_0_0" index="0" allow="pedestrian delivery bicycle" speed="3.65" length="4.67" shape="1822.36,500.21 1822.39,498.77 1821.96,497.99 1821.07,497.86 1819.73,498.39"/>
    </edge>
    <edge id=":1192240684_0" function="internal">
        <lane id=":1192240684_0_0" index="0" allow="pedestrian bicycle" speed="4.17" length="3.35" width="2.00" shape="1853.01,813.06 1853.75,813.69 1854.13,814.26 1854.44,814.89 1855.00,815.72"/>
    </edge>
    <edge id=":1192240684_1" function="internal">
        <lane id=":1192240684_1_0" index="0" allow="pedestrian motorcycle moped bicycle" speed="3.65" length="4.67" shape="1853.01,813.06 1854.45,813.09 1855.24,812.66 1855.37,811.78 1854.83,810.43"/>
    </edge>
    <edge id=":1316878093_0" function="internal">
        <lane id=":1316878093_0_0" index="0" allow="pedestrian delivery bicycle" speed="5.56" length="4.49" shape="1394.85,502.44 1393.83,501.86 1393.09,501.08 1392.62,500.11 1392.43,498.96"/>
    </edge>
    <edge id=":1316878093_1" function="internal">
        <lane id=":1316878093_1_0" index="0" allow="pedestrian delivery bicycle" speed="3.65" length="2.12" shape="1394.85,502.44 1393.43,502.71 1392.91,503.15"/>
    </edge>
    <edge id=":1316878093_4" function="internal">
        <lane id=":1316878093_4_0" index="0" allow="pedestrian delivery bicycle" speed="3.65" length="2.55" shape="1392.91,503.15 1392.75,503.29 1392.80,504.18 1393.59,505.39"/>
    </edge>
    <edge id=":1316878093_2" function="internal">
        <lane id=":1316878093_2_0" index="0" allow="pedestrian delivery bicycle" speed="5.56" length="8.10" shape="1389.23,499.10 1389.58,501.19 1390.42,502.93 1391.76,504.33 1393.59,505.39"/>
    </edge>
    <edge id=":1316878093_3" function="internal">
        <lane id=":1316878093_3_0" index="0" allow="pedestrian delivery bicycle" speed="3.65" length="2.53" shape="1389.23,499.10 1390.09,500.26 1390.90,500.63 1391.07,500.53"/>
    </edge>
    <edge id=":1316878093_5" function="internal">
        <lane id=":1316878093_5_0" index="0" allow="pedestrian delivery bicycle" speed="3.65" length="2.14" shape="1391.07,500.53 1391.68,500.19 1392.43,498.96"/>
    </edge>
    <edge id=":1316878106_0" function="internal">
        <lane id=":1316878106_0_0" index="0" allow="pedestrian delivery bicycle" speed="5.56" length="4.67" shape="1194.61,668.78 1193.32,673.26"/>
    </edge>
    <edge id=":1316878106_1" function="internal">
        <lane id=":1316878106_1_0" index="0" allow="pedestrian bicycle" speed="4.17" length="7.26" width="2.00" shape="1194.61,668.78 1194.76,669.80 1195.72,670.82 1197.50,671.83 1200.09,672.83"/>
    </edge>
    <edge id=":1316878106_2" function="internal">
        <lane id=":1316878106_2_0" index="0" allow="pedestrian delivery bicycle" speed="3.65" length="4.67" shape="1194.61,668.78 1195.10,670.13 1195.78,670.71 1196.65,670.51 1197.71,669.54"/>
    </edge>
    <edge id=":1316878106_3" function="internal">
        <lane id=":1316878106_3_0" index="0" allow="pedestrian bicycle" speed="4.17" length="4.53" width="2.00" shape="1196.37,674.24 1196.89,673.25 1197.69,672.69 1198.75,672.55 1200.09,672.83"/>
    </edge>
    <edge id=":1316878106_4" function="internal">
        <lane id=":1316878106_4_0" index="0" allow="pedestrian delivery bicycle" speed="5.56" length="4.89" shape="1196.37,674.24 1197.71,669.54"/>
    </edge>
    <edge id=":1316878106_5" function="internal">
        <lane id=":1316878106_5_0" index="0" allow="pedestrian delivery bicycle" speed="3.65" length="4.67" shape="1196.37,674.24 1195.98,672.85 1195.34,672.23 1194.45,672.36 1193.32,673.26"/>
    </edge>
    <edge id=":1316878116_0" function="internal">
        <lane id=":1316878116_0_0" index="0" disallow="tram rail_urban rail rail_electric rail_fast ship" speed="27.78" length="13.90" shape="993.23,1102.15 992.24,1105.59 991.22,1108.80 990.09,1111.98 988.78,1115.31"/>
    </edge>
    <edge id=":1316878116_1" function="internal">
        <lane id=":1316878116_1_0" index="0" disallow="tram rail_urban rail rail_electric rail_fast ship" speed="7.80" length="5.76" shape="993.23,1102.15 992.71,1106.21 993.21,1107.81"/>
    </edge>
    <edge id=":1316878116_2" function="internal">
        <lane id=":1316878116_2_0" index="0" disallow="tram rail_urban rail rail_electric rail_fast ship" speed="3.65" length="2.34" shape="993.23,1102.15 993.68,1103.52 994.34,1104.12"/>
    </edge>
    <edge id=":1316878116_9" function="internal">
        <lane id=":1316878116_9_0" index="0" disallow="tram rail_urban rail rail_electric rail_fast ship" speed="7.80" length="8.91" shape="993.21,1107.81 993.68,1109.31 996.12,1111.44 1000.04,1112.62"/>
    </edge>
    <edge id=":1316878116_10" function="internal">
        <lane id=":1316878116_10_0" index="0" disallow="tram rail_urban rail rail_electric rail_fast ship" speed="3.65" length="2.34" shape="994.34,1104.12 995.22,1103.94 996.31,1103.00"/>
    </edge>
    <edge id=":1316878116_3" function="internal">
        <lane id=":1316878116_3_0" index="0" disallow="tram rail_urban rail rail_electric rail_fast ship" speed="6.26" length="9.04" shape="1000.51,1109.46 998.09,1108.73 996.59,1107.41 995.99,1105.50 996.31,1103.00"/>
    </edge>
    <edge id=":1316878116_4" function="internal">
        <lane id=":1316878116_4_0" index="0" disallow="tram rail_urban rail rail_electric rail_fast ship" speed="8.83" length="14.27" shape="1000.51,1109.46 996.49,1109.33 993.19,1110.26 990.62,1112.26 988.78,1115.31"/>
    </edge>
    <edge id=":1316878116_5" function="internal">
        <lane id=":1316878116_5_0" index="0" disallow="tram rail_urban rail rail_electric rail_fast ship" speed="3.65" length="4.67" shape="1000.51,1109.46 999.20,1110.07 998.69,1110.80 998.97,1111.65 1000.04,1112.62"/>
    </edge>
    <edge id=":1316878116_6" function="internal">
        <lane id=":1316878116_6_0" index="0" disallow="tram rail_urban rail rail_electric rail_fast ship" speed="7.48" length="9.98" shape="991.73,1116.53 993.01,1114.47 994.81,1113.13 997.16,1112.51 1000.04,1112.62"/>
    </edge>
    <edge id=":1316878116_7" function="internal">
        <lane id=":1316878116_7_0" index="0" disallow="tram rail_urban rail rail_electric rail_fast ship" speed="27.78" length="14.29" shape="991.73,1116.53 993.07,1113.15 994.24,1109.84 995.30,1106.50 996.31,1103.00"/>
    </edge>
    <edge id=":1316878116_8" function="internal">
        <lane id=":1316878116_8_0" index="0" disallow="tram rail_urban rail rail_electric rail_fast ship" speed="3.65" length="2.34" shape="991.73,1116.53 991.45,1115.12 990.87,1114.44"/>
    </edge>
    <edge id=":1316878116_11" function="internal">