<?xml version="1.0" encoding="UTF-8"?>

<!-- generated on 11/10/20 17:58:23 by Eclipse SUMO netedit Version 1.7.0
<configuration xmlns:xsi="http://www.w3.org/2001/XMLSchema-instance" xsi:noNamespaceSchemaLocation="http://sumo.dlr.de/xsd/netconvertConfiguration.xsd">

    <input>
        <sumo-net-file value="G:\IISc\simu1\test.net.xml"/>
    </input>

    <output>
        <output-file value="G:\IISc\simu1\test.net.xml"/>
    </output>

    <processing>
        <geometry.min-radius.fix.railways value="false"/>
        <geometry.max-grade.fix value="false"/>
        <offset.disable-normalization value="true"/>
        <lefthand value="true"/>
    </processing>

    <junctions>
        <no-turnarounds value="true"/>
        <junctions.corner-detail value="5"/>
        <junctions.limit-turn-speed value="5.5"/>
        <rectangular-lane-cut value="false"/>
    </junctions>

    <pedestrian>
        <walkingareas value="false"/>
    </pedestrian>

    <report>
        <aggregate-warnings value="5"/>
    </report>

</configuration>
-->

<net version="1.6" junctionCornerDetail="5" lefthand="true" limitTurnSpeed="5.50" xmlns:xsi="http://www.w3.org/2001/XMLSchema-instance" xsi:noNamespaceSchemaLocation="http://sumo.dlr.de/xsd/net_file.xsd">

    <location netOffset="-776967.05,-1440110.12" convBoundary="442.19,408.96,2851.20,1587.98" origBoundary="77.553593,13.007893,77.579855,13.034767" projParameter="+proj=utm +zone=43 +ellps=WGS84 +datum=WGS84 +units=m +no_defs"/>

    <type id="highway.bridleway" priority="1" numLanes="1" speed="2.78" allow="pedestrian" oneway="1" width="2.00"/>
    <type id="highway.bus_guideway" priority="1" numLanes="1" speed="27.78" allow="bus" oneway="1"/>
    <type id="highway.cycleway" priority="1" numLanes="1" speed="8.33" allow="bicycle" oneway="0" width="1.00"/>
    <type id="highway.footway" priority="1" numLanes="1" speed="2.78" allow="pedestrian" oneway="1" width="2.00"/>
    <type id="highway.ford" priority="1" numLanes="1" speed="2.78" allow="army" oneway="0"/>
    <type id="highway.living_street" priority="2" numLanes="1" speed="2.78" disallow="tram rail_urban rail rail_electric rail_fast ship" oneway="0"/>
    <type id="highway.motorway" priority="14" numLanes="2" speed="39.44" allow="private emergency authority army vip passenger hov taxi bus coach delivery truck trailer motorcycle evehicle custom1 custom2" oneway="1"/>
    <type id="highway.motorway_link" priority="9" numLanes="1" speed="22.22" allow="private emergency authority army vip passenger hov taxi bus coach delivery truck trailer motorcycle evehicle custom1 custom2" oneway="1"/>
    <type id="highway.path" priority="1" numLanes="1" speed="2.78" allow="pedestrian bicycle" oneway="1" width="2.00"/>
    <type id="highway.pedestrian" priority="1" numLanes="1" speed="2.78" allow="pedestrian" oneway="1" width="2.00"/>
    <type id="highway.primary" priority="12" numLanes="2" speed="27.78" disallow="tram rail_urban rail rail_electric rail_fast ship" oneway="0"/>
    <type id="highway.primary_link" priority="7" numLanes="1" speed="22.22" disallow="tram rail_urban rail rail_electric rail_fast ship" oneway="0"/>
    <type id="highway.raceway" priority="15" numLanes="2" speed="83.33" allow="vip" oneway="0"/>
    <type id="highway.residential" priority="3" numLanes="1" speed="13.89" disallow="tram rail_urban rail rail_electric rail_fast ship" oneway="0"/>
    <type id="highway.secondary" priority="11" numLanes="1" speed="27.78" disallow="tram rail_urban rail rail_electric rail_fast ship" oneway="0"/>
    <type id="highway.secondary_link" priority="6" numLanes="1" speed="22.22" disallow="tram rail_urban rail rail_electric rail_fast ship" oneway="0"/>
    <type id="highway.service" priority="1" numLanes="1" speed="5.56" allow="pedestrian delivery bicycle" oneway="0"/>
    <type id="highway.stairs" priority="1" numLanes="1" speed="1.39" allow="pedestrian" oneway="1" width="2.00"/>
    <type id="highway.step" priority="1" numLanes="1" speed="1.39" allow="pedestrian" oneway="1" width="2.00"/>
    <type id="highway.steps" priority="1" numLanes="1" speed="1.39" allow="pedestrian" oneway="1" width="2.00"/>
    <type id="highway.tertiary" priority="10" numLanes="1" speed="22.22" disallow="tram rail_urban rail rail_electric rail_fast ship" oneway="0"/>
    <type id="highway.tertiary_link" priority="5" numLanes="1" speed="22.22" disallow="tram rail_urban rail rail_electric rail_fast ship" oneway="0"/>
    <type id="highway.track" priority="1" numLanes="1" speed="5.56" allow="pedestrian motorcycle moped bicycle" oneway="0"/>
    <type id="highway.trunk" priority="13" numLanes="2" speed="27.78" disallow="pedestrian bicycle tram rail_urban rail rail_electric rail_fast ship" oneway="0"/>
    <type id="highway.trunk_link" priority="8" numLanes="1" speed="22.22" disallow="pedestrian bicycle tram rail_urban rail rail_electric rail_fast ship" oneway="0"/>
    <type id="highway.unclassified" priority="4" numLanes="1" speed="13.89" disallow="tram rail_urban rail rail_electric rail_fast ship" oneway="0"/>
    <type id="highway.unsurfaced" priority="1" numLanes="1" speed="8.33" disallow="tram rail_urban rail rail_electric rail_fast ship" oneway="0"/>
    <type id="railway.highspeed" priority="21" numLanes="1" speed="69.44" allow="rail_fast" oneway="1"/>
    <type id="railway.light_rail" priority="19" numLanes="1" speed="27.78" allow="rail_urban" oneway="1"/>
    <type id="railway.preserved" priority="16" numLanes="1" speed="27.78" allow="rail" oneway="1"/>
    <type id="railway.rail" priority="20" numLanes="1" speed="44.44" allow="rail" oneway="1"/>
    <type id="railway.subway" priority="18" numLanes="1" speed="27.78" allow="rail_urban" oneway="1"/>
    <type id="railway.tram" priority="17" numLanes="1" speed="13.89" allow="tram" oneway="1"/>

    <edge id=":1085546691_0" function="internal">
        <lane id=":1085546691_0_0" index="0" allow="pedestrian bicycle" speed="2.78" length="1.72" width="2.00" shape="1908.94,1073.87 1908.90,1074.34 1908.71,1074.68 1908.38,1074.87 1907.90,1074.92"/>
    </edge>
    <edge id=":1085546698_0" function="internal">
        <lane id=":1085546698_0_0" index="0" allow="pedestrian delivery bicycle" speed="5.56" length="6.58" shape="1582.41,602.87 1582.09,596.29"/>
    </edge>
    <edge id=":1085546698_1" function="internal">
        <lane id=":1085546698_1_0" index="0" allow="pedestrian delivery bicycle" speed="3.65" length="4.67" shape="1582.41,602.87 1581.55,601.71 1580.74,601.35 1579.96,601.79 1579.21,603.03"/>
    </edge>
    <edge id=":1085546698_2" function="internal">
        <lane id=":1085546698_2_0" index="0" allow="pedestrian delivery bicycle" speed="5.56" length="6.58" shape="1578.90,596.45 1579.21,603.03"/>
    </edge>
    <edge id=":1085546698_3" function="internal">
        <lane id=":1085546698_3_0" index="0" allow="pedestrian delivery bicycle" speed="3.65" length="4.67" shape="1578.90,596.45 1579.75,597.61 1580.57,597.97 1581.35,597.53 1582.09,596.29"/>
    </edge>
    <edge id=":1085546741_0" function="internal">
        <lane id=":1085546741_0_0" index="0" disallow="tram rail_urban rail rail_electric rail_fast ship" speed="13.89" length="10.79" shape="1414.36,625.47 1413.78,614.69"/>
    </edge>
    <edge id=":1085546741_1" function="internal">
        <lane id=":1085546741_1_0" index="0" allow="pedestrian delivery bicycle" speed="6.89" length="5.05" shape="1414.36,625.47 1413.80,622.77 1412.51,620.88"/>
    </edge>
    <edge id=":1085546741_2" function="internal">
        <lane id=":1085546741_2_0" index="0" disallow="tram rail_urban rail rail_electric rail_fast ship" speed="3.65" length="2.34" shape="1414.36,625.47 1413.49,624.32 1412.67,623.97"/>
    </edge>
    <edge id=":1085546741_9" function="internal">
        <lane id=":1085546741_9_0" index="0" allow="pedestrian delivery bicycle" speed="6.89" length="5.08" shape="1412.51,620.88 1410.47,619.80 1407.71,619.54"/>
    </edge>
    <edge id=":1085546741_10" function="internal">
        <lane id=":1085546741_10_0" index="0" disallow="tram rail_urban rail rail_electric rail_fast ship" speed="3.65" length="2.34" shape="1412.67,623.97 1411.89,624.42 1411.17,625.67"/>
    </edge>
    <edge id=":1085546741_3" function="internal">
        <lane id=":1085546741_3_0" index="0" allow="pedestrian delivery bicycle" speed="5.07" length="5.02" shape="1407.86,622.74 1409.23,622.87 1410.25,623.40 1410.89,624.33 1411.17,625.67"/>
    </edge>
    <edge id=":1085546741_4" function="internal">
        <lane id=":1085546741_4_0" index="0" allow="pedestrian delivery bicycle" speed="7.22" length="11.36" shape="1407.86,622.74 1410.59,622.13 1412.49,620.58 1413.55,618.10 1413.78,614.69"/>
    </edge>
    <edge id=":1085546741_5" function="internal">
        <lane id=":1085546741_5_0" index="0" allow="pedestrian delivery bicycle" speed="3.65" length="4.67" shape="1407.86,622.74 1409.02,621.88 1409.38,621.07 1408.94,620.29 1407.71,619.54"/>
    </edge>
    <edge id=":1085546741_6" function="internal">
        <lane id=":1085546741_6_0" index="0" allow="pedestrian delivery bicycle" speed="5.52" length="6.22" shape="1410.58,614.85 1410.49,616.85 1409.97,618.30 1409.05,619.20 1407.71,619.54"/>
    </edge>
    <edge id=":1085546741_7" function="internal">
        <lane id=":1085546741_7_0" index="0" disallow="tram rail_urban rail rail_electric rail_fast ship" speed="13.89" length="10.83" shape="1410.58,614.85 1411.17,625.67"/>
    </edge>
    <edge id=":1085546741_8" function="internal">
        <lane id=":1085546741_8_0" index="0" disallow="tram rail_urban rail rail_electric rail_fast ship" speed="3.65" length="2.34" shape="1410.58,614.85 1411.44,616.01 1412.26,616.37"/>
    </edge>
    <edge id=":1085546741_11" function="internal">
        <lane id=":1085546741_11_0" index="0" disallow="tram rail_urban rail rail_electric rail_fast ship" speed="3.65" length="2.34" shape="1412.26,616.37 1413.04,615.93 1413.78,614.69"/>
    </edge>
    <edge id=":1085546763_0" function="internal">
        <lane id=":1085546763_0_0" index="0" allow="pedestrian delivery bicycle" speed="5.56" length="5.04" shape="1498.62,675.49 1493.58,675.73"/>
    </edge>
    <edge id=":1085546763_1" function="internal">
        <lane id=":1085546763_1_0" index="0" allow="pedestrian delivery bicycle" speed="3.65" length="2.34" shape="1498.62,675.49 1497.45,676.35 1497.09,677.17"/>
    </edge>
    <edge id=":1085546763_4" function="internal">
        <lane id=":1085546763_4_0" index="0" allow="pedestrian delivery bicycle" speed="3.65" length="2.34" shape="1497.09,677.17 1497.53,677.95 1498.77,678.69"/>
    </edge>
    <edge id=":1085546763_2" function="internal">
        <lane id=":1085546763_2_0" index="0" allow="pedestrian delivery bicycle" speed="5.56" length="5.04" shape="1493.73,678.93 1498.77,678.69"/>
    </edge>
    <edge id=":1085546763_3" function="internal">
        <lane id=":1085546763_3_0" index="0" allow="pedestrian delivery bicycle" speed="3.65" length="2.34" shape="1493.73,678.93 1494.89,678.07 1495.25,677.25"/>
    </edge>
    <edge id=":1085546763_5" function="internal">
        <lane id=":1085546763_5_0" index="0" allow="pedestrian delivery bicycle" speed="3.65" length="2.34" shape="1495.25,677.25 1494.81,676.47 1493.58,675.73"/>
    </edge>
    <edge id=":1085546805_0" function="internal">
        <lane id=":1085546805_0_0" index="0" disallow="tram rail_urban rail rail_electric rail_fast ship" speed="6.22" length="8.27" shape="1523.08,1160.74 1521.91,1162.93 1520.47,1164.23 1518.73,1164.65 1516.72,1164.20"/>
    </edge>
    <edge id=":1085546805_1" function="internal">
        <lane id=":1085546805_1_0" index="0" disallow="tram rail_urban rail rail_electric rail_fast ship" speed="8.06" length="14.22" shape="1523.08,1160.74 1522.18,1164.55 1522.68,1167.75 1524.58,1170.33 1527.90,1172.30"/>
    </edge>
    <edge id=":1085546805_2" function="internal">
        <lane id=":1085546805_2_0" index="0" disallow="tram rail_urban rail rail_electric rail_fast ship" speed="3.65" length="4.67" shape="1523.08,1160.74 1523.39,1162.15 1523.99,1162.82 1524.88,1162.74 1526.06,1161.91"/>
    </edge>
    <edge id=":1085546805_3" function="internal">
        <lane id=":1085546805_3_0" index="0" disallow="tram rail_urban rail rail_electric rail_fast ship" speed="6.58" length="9.13" shape="1529.13,1169.35 1527.01,1168.08 1525.79,1166.42 1525.47,1164.37 1526.06,1161.91"/>
    </edge>
    <edge id=":1085546805_4" function="internal">
        <lane id=":1085546805_4_0" index="0" disallow="tram rail_urban rail rail_electric rail_fast ship" speed="13.89" length="13.43" shape="1529.13,1169.35 1516.72,1164.20"/>
    </edge>
    <edge id=":1085546805_5" function="internal">
        <lane id=":1085546805_5_0" index="0" disallow="tram rail_urban rail rail_electric rail_fast ship" speed="3.65" length="2.34" shape="1529.13,1169.35 1527.71,1169.63 1527.04,1170.21"/>
    </edge>
    <edge id=":1085546805_9" function="internal">
        <lane id=":1085546805_9_0" index="0" disallow="tram rail_urban rail rail_electric rail_fast ship" speed="3.65" length="2.34" shape="1527.04,1170.21 1527.10,1171.10 1527.90,1172.30"/>
    </edge>
    <edge id=":1085546805_6" function="internal">
        <lane id=":1085546805_6_0" index="0" disallow="tram rail_urban rail rail_electric rail_fast ship" speed="13.89" length="13.43" shape="1515.50,1167.16 1527.90,1172.30"/>
    </edge>
    <edge id=":1085546805_7" function="internal">
        <lane id=":1085546805_7_0" index="0" disallow="tram rail_urban rail rail_electric rail_fast ship" speed="7.76" length="5.35" shape="1515.50,1167.16 1518.90,1167.97 1520.72,1167.59"/>
    </edge>
    <edge id=":1085546805_8" function="internal">
        <lane id=":1085546805_8_0" index="0" disallow="tram rail_urban rail rail_electric rail_fast ship" speed="3.65" length="2.34" shape="1515.50,1167.16 1516.91,1166.88 1517.59,1166.29"/>
    </edge>
    <edge id=":1085546805_10" function="internal">
        <lane id=":1085546805_10_0" index="0" disallow="tram rail_urban rail rail_electric rail_fast ship" speed="7.76" length="8.14" shape="1520.72,1167.59 1521.80,1167.36 1524.18,1165.35 1526.06,1161.91"/>
    </edge>
    <edge id=":1085546805_11" function="internal">
        <lane id=":1085546805_11_0" index="0" disallow="tram rail_urban rail rail_electric rail_fast ship" speed="3.65" length="2.34" shape="1517.59,1166.29 1517.52,1165.40 1516.72,1164.20"/>
    </edge>
    <edge id=":1085546830_0" function="internal">
        <lane id=":1085546830_0_0" index="0" disallow="tram rail_urban rail rail_electric rail_fast ship" speed="3.65" length="4.67" shape="1407.20,471.45 1406.35,470.29 1405.53,469.93 1404.75,470.36 1404.01,471.60"/>
    </edge>
    <edge id=":1085546922_0" function="internal">
        <lane id=":1085546922_0_0" index="0" disallow="tram rail_urban rail rail_electric rail_fast ship" speed="13.89" length="13.73" shape="1516.54,1164.12 1503.86,1158.86"/>
    </edge>
    <edge id=":1085546922_1" function="internal">
        <lane id=":1085546922_1_0" index="0" disallow="tram rail_urban rail rail_electric rail_fast ship" speed="7.41" length="5.60" shape="1516.54,1164.12 1512.63,1163.18 1511.11,1163.60"/>
    </edge>
    <edge id=":1085546922_2" function="internal">
        <lane id=":1085546922_2_0" index="0" disallow="tram rail_urban rail rail_electric rail_fast ship" speed="3.65" length="2.34" shape="1516.54,1164.12 1515.12,1164.40 1514.45,1164.99"/>
    </edge>
    <edge id=":1085546922_9" function="internal">
        <lane id=":1085546922_9_0" index="0" disallow="tram rail_urban rail rail_electric rail_fast ship" speed="7.41" length="9.16" shape="1511.11,1163.60 1509.69,1164.00 1507.73,1166.58 1506.74,1170.92"/>
    </edge>
    <edge id=":1085546922_10" function="internal">
        <lane id=":1085546922_10_0" index="0" disallow="tram rail_urban rail rail_electric rail_fast ship" speed="3.65" length="2.34" shape="1514.45,1164.99 1514.51,1165.88 1515.31,1167.08"/>
    </edge>
    <edge id=":1085546922_3" function="internal">
        <lane id=":1085546922_3_0" index="0" disallow="tram rail_urban rail rail_electric rail_fast ship" speed="5.76" length="8.39" shape="1509.93,1171.22 1510.48,1168.66 1511.57,1167.12 1513.18,1166.59 1515.31,1167.08"/>
    </edge>
    <edge id=":1085546922_4" function="internal">
        <lane id=":1085546922_4_0" index="0" disallow="tram rail_urban rail rail_electric rail_fast ship" speed="9.22" length="14.84" shape="1509.93,1171.22 1509.89,1166.90 1508.86,1163.40 1506.86,1160.72 1503.86,1158.86"/>
    </edge>
    <edge id=":1085546922_5" function="internal">
        <lane id=":1085546922_5_0" index="0" disallow="tram rail_urban rail rail_electric rail_fast ship" speed="3.65" length="4.67" shape="1509.93,1171.22 1509.24,1169.95 1508.49,1169.48 1507.65,1169.80 1506.74,1170.92"/>
    </edge>
    <edge id=":1085546922_6" function="internal">
        <lane id=":1085546922_6_0" index="0" disallow="tram rail_urban rail rail_electric rail_fast ship" speed="7.92" length="10.74" shape="1502.64,1161.82 1504.69,1163.13 1506.06,1165.09 1506.74,1167.68 1506.74,1170.92"/>
    </edge>
    <edge id=":1085546922_7" function="internal">
        <lane id=":1085546922_7_0" index="0" disallow="tram rail_urban rail rail_electric rail_fast ship" speed="13.89" length="13.72" shape="1502.64,1161.82 1515.31,1167.08"/>
    </edge>
    <edge id=":1085546922_8" function="internal">
        <lane id=":1085546922_8_0" index="0" disallow="tram rail_urban rail rail_electric rail_fast ship" speed="3.65" length="2.34" shape="1502.64,1161.82 1504.05,1161.54 1504.73,1160.96"/>
    </edge>
    <edge id=":1085546922_11" function="internal">
        <lane id=":1085546922_11_0" index="0" disallow="tram rail_urban rail rail_electric rail_fast ship" speed="3.65" length="2.34" shape="1504.73,1160.96 1504.66,1160.06 1503.86,1158.86"/>
    </edge>
    <edge id=":1085546984_0" function="internal">
        <lane id=":1085546984_0_0" index="0" allow="pedestrian bicycle" speed="2.78" length="4.04" width="2.00" shape="1871.46,840.85 1872.43,840.30 1873.33,840.20 1874.18,840.55 1874.95,841.34"/>
    </edge>
    <edge id=":1085546984_1" function="internal">
        <lane id=":1085546984_1_0" index="0" allow="pedestrian bicycle" speed="2.78" length="5.01" width="2.00" shape="1871.97,837.32 1874.95,841.34"/>
    </edge>
    <edge id=":1085547009_0" function="internal">
        <lane id=":1085547009_0_0" index="0" allow="pedestrian delivery bicycle" speed="3.65" length="4.67" shape="1575.52,459.19 1574.66,458.03 1573.84,457.67 1573.06,458.10 1572.32,459.34"/>
    </edge>
    <edge id=":1146648142_0" function="internal">
        <lane id=":1146648142_0_0" index="0" allow="pedestrian delivery bicycle" speed="3.65" length="4.67" shape="967.40,623.53 966.63,624.75 966.59,625.64 967.28,626.21 968.70,626.45"/>
    </edge>
    <edge id=":1176488960_0" function="internal">
        <lane id=":1176488960_0_0" index="0" allow="pedestrian delivery bicycle" speed="4.13" length="1.38" shape="868.31,484.18 867.96,484.14 867.64,484.03 867.36,483.86 867.11,483.61"/>
    </edge>
    <edge id=":1176488960_1" function="internal">
        <lane id=":1176488960_1_0" index="0" allow="pedestrian delivery bicycle" speed="5.56" length="4.13" shape="864.65,485.66 865.41,486.40 866.26,486.93 867.21,487.26 868.26,487.38"/>
    </edge>
    <edge id=":1185581622_0" function="internal">
        <lane id=":1185581622_0_0" index="0" allow="pedestrian delivery bicycle" speed="3.65" length="4.67" shape="1822.37,500.21 1822.39,498.77 1821.96,497.98 1821.08,497.86 1819.73,498.39"/>
    </edge>
    <edge id=":1192240684_0" function="internal">
        <lane id=":1192240684_0_0" index="0" allow="pedestrian bicycle" speed="4.17" length="3.62" width="2.00" shape="1852.76,812.88 1853.58,813.56 1854.01,814.15 1854.38,814.81 1854.99,815.70"/>
    </edge>
    <edge id=":1192240684_1" function="internal">
        <lane id=":1192240684_1_0" index="0" allow="pedestrian motorcycle moped bicycle" speed="3.65" length="4.67" shape="1852.76,812.88 1854.21,812.91 1854.99,812.48 1855.12,811.59 1854.59,810.25"/>
    </edge>
    <edge id=":1316878093_0" function="internal">
        <lane id=":1316878093_0_0" index="0" allow="pedestrian delivery bicycle" speed="3.65" length="4.67" shape="1392.79,501.57 1391.37,501.83 1390.69,502.41 1390.74,503.30 1391.54,504.51"/>
    </edge>
    <edge id=":1316878106_0" function="internal">
        <lane id=":1316878106_0_0" index="0" allow="pedestrian delivery bicycle" speed="5.56" length="4.67" shape="1194.60,668.77 1193.32,673.26"/>
    </edge>
    <edge id=":1316878106_1" function="internal">
        <lane id=":1316878106_1_0" index="0" allow="pedestrian bicycle" speed="4.17" length="7.26" width="2.00" shape="1194.60,668.77 1194.76,669.80 1195.72,670.82 1197.50,671.83 1200.09,672.83"/>
    </edge>
    <edge id=":1316878106_2" function="internal">
        <lane id=":1316878106_2_0" index="0" allow="pedestrian delivery bicycle" speed="3.65" length="4.67" shape="1194.60,668.77 1195.09,670.13 1195.78,670.71 1196.65,670.51 1197.71,669.54"/>
    </edge>
    <edge id=":1316878106_3" function="internal">
        <lane id=":1316878106_3_0" index="0" allow="pedestrian bicycle" speed="4.17" length="4.53" width="2.00" shape="1196.37,674.24 1196.89,673.25 1197.68,672.69 1198.75,672.55 1200.09,672.83"/>
    </edge>
    <edge id=":1316878106_4" function="internal">
        <lane id=":1316878106_4_0" index="0" allow="pedestrian delivery bicycle" speed="5.56" length="4.89" shape="1196.37,674.24 1197.71,669.54"/>
    </edge>
    <edge id=":1316878106_5" function="internal">
        <lane id=":1316878106_5_0" index="0" allow="pedestrian delivery bicycle" speed="3.65" length="4.67" shape="1196.37,674.24 1195.97,672.85 1195.33,672.23 1194.45,672.36 1193.32,673.26"/>
    </edge>
    <edge id=":1316878116_0" function="internal">
        <lane id=":1316878116_0_0" index="0" disallow="tram rail_urban rail rail_electric rail_fast ship" speed="27.78" length="13.90" shape="993.22,1102.14 992.24,1105.58 991.22,1108.80 990.09,1111.98 988.78,1115.30"/>
    </edge>
    <edge id=":1316878116_1" function="internal">
        <lane id=":1316878116_1_0" index="0" disallow="tram rail_urban rail rail_electric rail_fast ship" speed="7.80" length="5.76" shape="993.22,1102.14 992.71,1106.20 993.21,1107.80"/>
    </edge>
    <edge id=":1316878116_2" function="internal">
        <lane id=":1316878116_2_0" index="0" disallow="tram rail_urban rail rail_electric rail_fast ship" speed="3.65" length="2.34" shape="993.22,1102.14 993.68,1103.51 994.34,1104.11"/>
    </edge>
    <edge id=":1316878116_9" function="internal">
        <lane id=":1316878116_9_0" index="0" disallow="tram rail_urban rail rail_electric rail_fast ship" speed="7.80" length="8.91" shape="993.21,1107.80 993.67,1109.30 996.12,1111.44 1000.04,1112.62"/>
    </edge>
    <edge id=":1316878116_10" function="internal">
        <lane id=":1316878116_10_0" index="0" disallow="tram rail_urban rail rail_electric rail_fast ship" speed="3.65" length="2.34" shape="994.34,1104.11 995.22,1103.94 996.31,1103.00"/>
    </edge>
    <edge id=":1316878116_3" function="internal">
        <lane id=":1316878116_3_0" index="0" disallow="tram rail_urban rail rail_electric rail_fast ship" speed="6.26" length="9.04" shape="1000.51,1109.45 998.09,1108.73 996.59,1107.41 995.99,1105.50 996.31,1103.00"/>
    </edge>
    <edge id=":1316878116_4" function="internal">
        <lane id=":1316878116_4_0" index="0" disallow="tram rail_urban rail rail_electric rail_fast ship" speed="8.83" length="14.27" shape="1000.51,1109.45 996.49,1109.32 993.19,1110.26 990.62,1112.25 988.78,1115.30"/>
    </edge>
    <edge id=":1316878116_5" function="internal">
        <lane id=":1316878116_5_0" index="0" disallow="tram rail_urban rail rail_electric rail_fast ship" speed="3.65" length="4.67" shape="1000.51,1109.45 999.20,1110.07 998.69,1110.80 998.97,1111.65 1000.04,1112.62"/>
    </edge>
    <edge id=":1316878116_6" function="internal">
        <lane id=":1316878116_6_0" index="0" disallow="tram rail_urban rail rail_electric rail_fast ship" speed="7.48" length="9.98" shape="991.73,1116.53 993.01,1114.46 994.81,1113.12 997.16,1112.51 1000.04,1112.62"/>
    </edge>
    <edge id=":1316878116_7" function="internal">
        <lane id=":1316878116_7_0" index="0" disallow="tram rail_urban rail rail_electric rail_fast ship" speed="27.78" length="14.29" shape="991.73,1116.53 993.07,1113.14 994.24,1109.84 995.30,1106.49 996.31,1103.00"/>
    </edge>
    <edge id=":1316878116_8" function="internal">
        <lane id=":1316878116_8_0" index="0" disallow="tram rail_urban rail rail_electric rail_fast ship" speed="3.65" length="2.34" shape="991.73,1116.53 991.45,1115.11 990.87,1114.44"/>
    </edge>
    <edge id=":1316878116_11" function="internal">
        <lane id=":1316878116_11_0" index="0" disallow="tram rail_urban rail rail_electric rail_fast ship" speed="3.65" length="2.34" shape="990.87,1114.44 989.97,1114.50 988.78,1115.30"/>
    </edge>
    <edge id=":1777151115_0" function="internal">
        <lane id=":1777151115_0_0" index="0" disallow="tram rail_urban rail rail_electric rail_fast ship" speed="13.89" length="19.24" shape="1883.27,1496.94 1878.95,1496.53 1873.97,1495.09 1869.04,1493.25 1864.90,1491.62"/>
    </edge>
    <edge id=":1777151115_1" function="internal">
        <lane id=":1777151115_1_0" index="0" allow="pedestrian delivery bicycle" speed="9.72" length="19.84" shape="1883.27,1496.94 1863.48,1498.44"/>
    </edge>
    <edge id=":1777151115_2" function="internal">
        <lane id=":1777151115_2_0" index="0" disallow="tram rail_urban rail rail_electric rail_fast ship" speed="3.65" length="2.01" shape="1883.27,1496.94 1882.14,1497.83 1881.93,1498.36"/>
    </edge>
    <edge id=":1777151115_9" function="internal">
        <lane id=":1777151115_9_0" index="0" disallow="tram rail_urban rail rail_electric rail_fast ship" speed="3.65" length="2.66" shape="1881.93,1498.36 1881.81,1498.67 1882.28,1499.43 1883.54,1500.12"/>
    </edge>
    <edge id=":1777151115_3" function="internal">
        <lane id=":1777151115_3_0" index="0" allow="pedestrian delivery bicycle" speed="9.72" length="19.88" shape="1863.72,1501.63 1883.54,1500.12"/>
    </edge>
    <edge id=":1777151115_4" function="internal">
        <lane id=":1777151115_4_0" index="0" allow="pedestrian delivery bicycle" speed="5.96" length="13.82" shape="1863.72,1501.63 1867.00,1500.16 1868.37,1497.20 1867.71,1493.95 1864.90,1491.62"/>
    </edge>
    <edge id=":1777151115_5" function="internal">
        <lane id=":1777151115_5_0" index="0" allow="pedestrian delivery bicycle" speed="3.65" length="4.67" shape="1863.72,1501.63 1864.86,1500.74 1865.20,1499.91 1864.74,1499.15 1863.48,1498.44"/>
    </edge>
    <edge id=":1777151115_6" function="internal">
        <lane id=":1777151115_6_0" index="0" allow="pedestrian delivery bicycle" speed="5.10" length="9.59" shape="1863.93,1494.68 1867.02,1496.08 1867.97,1497.17 1866.79,1497.96 1863.48,1498.44"/>
    </edge>
    <edge id=":1777151115_7" function="internal">
        <lane id=":1777151115_7_0" index="0" disallow="tram rail_urban rail rail_electric rail_fast ship" speed="13.89" length="20.45" shape="1863.93,1494.68 1868.27,1496.33 1873.62,1498.22 1879.03,1499.70 1883.54,1500.12"/>
    </edge>
    <edge id=":1777151115_8" function="internal">
        <lane id=":1777151115_8_0" index="0" disallow="tram rail_urban rail rail_electric rail_fast ship" speed="3.65" length="2.22" shape="1863.93,1494.68 1865.32,1494.27 1865.86,1493.72"/>
    </edge>
    <edge id=":1777151115_10" function="internal">
        <lane id=":1777151115_10_0" index="0" disallow="tram rail_urban rail rail_electric rail_fast ship" speed="3.65" length="2.46" shape="1865.86,1493.72 1865.94,1493.63 1865.80,1492.74 1864.90,1491.62"/>
    </edge>
    <edge id=":1777151131_0" function="internal">
        <lane id=":1777151131_0_0" index="0" allow="pedestrian delivery bicycle" speed="5.84" length="13.12" shape="1803.85,1496.59 1801.48,1499.23 1801.15,1502.42 1802.67,1505.04 1805.88,1505.96"/>
    </edge>
    <edge id=":1777151131_1" function="internal">
        <lane id=":1777151131_1_0" index="0" disallow="tram rail_urban rail rail_electric rail_fast ship" speed="3.67" length="4.75" shape="1803.85,1496.59 1802.98,1497.77 1802.88,1498.67 1803.54,1499.30 1804.96,1499.64"/>
    </edge>
    <edge id=":1777151131_2" function="internal">
        <lane id=":1777151131_2_0" index="0" allow="pedestrian delivery bicycle" speed="4.70" length="7.81" shape="1805.64,1502.76 1802.99,1502.77 1801.99,1502.24 1802.65,1501.20 1804.96,1499.64"/>
    </edge>
    <edge id=":1777151131_3" function="internal">
        <lane id=":1777151131_3_0" index="0" allow="pedestrian delivery bicycle" speed="3.65" length="4.67" shape="1805.64,1502.76 1804.50,1503.65 1804.16,1504.48 1804.62,1505.25 1805.88,1505.96"/>
    </edge>
    <edge id=":1789917269_0" function="internal">
        <lane id=":1789917269_0_0" index="0" disallow="tram rail_urban rail rail_electric rail_fast ship" speed="3.65" length="4.67" shape="1936.72,1501.88 1937.17,1503.25 1937.84,1503.84 1938.71,1503.67 1939.80,1502.72"/>
    </edge>
    <edge id=":2248662903_0" function="internal">
        <lane id=":2248662903_0_0" index="0" disallow="tram rail_urban rail rail_electric rail_fast ship" speed="27.78" length="14.72" shape="936.32,590.71 928.99,577.93"/>
    </edge>
    <edge id=":2248662903_1" function="internal">